*SPEF "ieee 1481-1999"
*DESIGN "credit_pi_switch"
*DATE "15:17:56 Monday July 07, 2025"
*VENDOR "The OpenROAD Project"
*PROGRAM "OpenROAD"
*VERSION "v2.0-21872-gd51df1dea5"
*DESIGN_FLOW "NAME_SCOPE LOCAL" "PIN_CAP NONE"
*DIVIDER /
*DELIMITER :
*BUS_DELIMITER []
*T_UNIT 1 NS
*C_UNIT 1 PF
*R_UNIT 1 OHM
*L_UNIT 1 HENRY

*NAME_MAP
*1 _0000_
*2 _0001_
*3 _0002_
*4 _0003_
*5 _0004_
*6 _0005_
*7 _0006_
*8 _0007_
*9 _0008_
*10 _0009_
*11 _0010_
*12 _0011_
*13 _0012_
*14 _0013_
*15 _0014_
*16 _0015_
*17 _0016_
*18 _0017_
*19 _0018_
*20 _0019_
*21 _0020_
*22 _0021_
*23 _0022_
*24 _0023_
*25 _0024_
*26 _0025_
*27 _0026_
*28 _0027_
*29 _0028_
*30 _0029_
*31 _0030_
*32 _0031_
*33 _0032_
*34 _0033_
*35 _0034_
*36 _0035_
*37 _0036_
*38 _0037_
*39 _0038_
*40 _0039_
*41 _0040_
*42 _0041_
*43 _0042_
*44 _0043_
*45 _0044_
*46 _0045_
*47 _0046_
*48 _0047_
*49 _0048_
*50 _0049_
*51 _0050_
*52 _0051_
*53 _0052_
*54 _0053_
*55 _0054_
*56 _0055_
*57 _0056_
*58 _0057_
*59 _0058_
*60 _0059_
*61 _0060_
*62 _0061_
*63 _0062_
*64 _0063_
*65 _0064_
*66 _0065_
*67 _0066_
*68 _0067_
*69 _0068_
*70 _0069_
*71 _0070_
*72 _0071_
*73 _0072_
*74 _0073_
*75 _0074_
*76 _0075_
*77 _0076_
*78 _0077_
*79 _0078_
*80 _0079_
*81 _0080_
*82 _0081_
*83 _0082_
*84 _0083_
*85 _0084_
*86 _0085_
*87 _0086_
*88 _0087_
*89 _0088_
*90 _0089_
*91 _0090_
*92 _0091_
*93 _0092_
*94 _0093_
*95 _0094_
*96 _0095_
*97 _0096_
*98 _0097_
*99 _0098_
*100 _0099_
*101 _0100_
*102 _0101_
*103 _0102_
*104 _0103_
*105 _0104_
*106 _0105_
*107 _0106_
*108 _0107_
*109 _0108_
*110 _0109_
*111 _0110_
*112 _0111_
*113 _0112_
*114 _0113_
*115 _0114_
*116 _0115_
*117 _0116_
*118 _0117_
*119 _0118_
*120 _0119_
*121 _0120_
*122 _0121_
*123 _0122_
*124 _0123_
*125 _0124_
*126 _0125_
*127 _0126_
*128 _0127_
*129 _0128_
*130 _0129_
*131 _0130_
*132 _0131_
*133 _0132_
*134 _0133_
*135 _0134_
*136 _0135_
*137 _0136_
*138 _0137_
*139 _0138_
*140 _0139_
*141 _0140_
*142 _0141_
*143 _0142_
*144 _0143_
*145 _0144_
*146 _0145_
*147 _0146_
*148 _0147_
*149 _0148_
*150 _0149_
*151 _0150_
*152 _0151_
*153 _0152_
*154 _0153_
*155 _0154_
*156 _0155_
*157 _0156_
*158 _0157_
*159 _0158_
*160 _0159_
*161 _0160_
*162 _0161_
*163 _0162_
*164 _0163_
*165 _0164_
*166 _0165_
*167 _0166_
*168 _0167_
*169 _0168_
*170 _0169_
*171 _0170_
*172 _0171_
*173 _0172_
*174 _0173_
*175 _0174_
*176 _0175_
*177 _0176_
*178 _0177_
*179 _0178_
*180 _0179_
*181 _0180_
*182 _0181_
*183 _0182_
*184 _0183_
*185 _0184_
*186 _0185_
*187 _0186_
*188 _0187_
*189 _0188_
*190 _0189_
*191 _0190_
*192 _0191_
*193 _0192_
*194 _0193_
*195 _0194_
*196 _0195_
*197 _0196_
*198 _0197_
*199 _0198_
*200 _0199_
*201 _0200_
*202 _0201_
*203 _0202_
*204 _0203_
*205 _0204_
*206 _0205_
*207 _0206_
*208 _0207_
*209 _0208_
*210 _0209_
*211 _0210_
*212 _0211_
*213 _0212_
*214 _0213_
*215 _0214_
*216 _0215_
*217 _0216_
*218 _0217_
*219 _0218_
*220 _0219_
*221 _0220_
*222 _0221_
*223 _0222_
*224 _0223_
*225 _0224_
*226 _0225_
*227 _0226_
*228 _0227_
*229 _0228_
*230 _0229_
*231 _0230_
*232 _0231_
*233 _0232_
*234 _0233_
*235 _0234_
*236 _0235_
*237 _0236_
*238 _0237_
*239 _0238_
*240 _0239_
*241 _0240_
*242 _0241_
*243 _0242_
*244 _0243_
*245 _0244_
*246 _0245_
*247 _0246_
*248 _0247_
*249 _0248_
*250 _0249_
*251 _0250_
*252 _0251_
*253 _0252_
*254 _0253_
*255 _0254_
*256 _0255_
*257 _0256_
*258 _0257_
*259 _0258_
*260 _0259_
*261 _0260_
*262 _0261_
*263 _0262_
*264 _0263_
*265 _0264_
*266 _0265_
*267 _0266_
*268 _0267_
*269 _0268_
*270 _0269_
*271 _0270_
*272 _0271_
*273 _0272_
*274 _0273_
*275 _0274_
*276 _0275_
*277 _0276_
*278 _0277_
*279 _0278_
*280 _0279_
*281 _0280_
*282 _0281_
*283 _0282_
*284 _0283_
*285 _0284_
*286 _0285_
*287 _0286_
*288 _0287_
*289 _0288_
*290 _0289_
*291 _0290_
*292 _0291_
*293 _0292_
*294 _0293_
*295 _0294_
*296 _0295_
*297 _0296_
*298 _0297_
*299 _0298_
*300 _0299_
*301 _0300_
*302 _0301_
*303 _0302_
*304 _0303_
*305 _0304_
*306 _0305_
*307 _0306_
*308 _0307_
*309 _0308_
*310 _0309_
*311 _0310_
*312 _0311_
*313 _0312_
*314 _0313_
*315 _0314_
*316 _0315_
*317 _0316_
*318 _0317_
*319 _0318_
*320 _0319_
*321 _0320_
*322 _0321_
*323 _0322_
*324 _0323_
*325 _0324_
*326 _0325_
*327 _0326_
*328 _0327_
*329 _0328_
*330 _0329_
*331 _0330_
*332 _0331_
*333 _0332_
*334 _0333_
*335 _0334_
*336 _0335_
*337 _0336_
*338 _0337_
*339 _0338_
*340 _0339_
*341 _0340_
*342 _0341_
*343 _0342_
*344 _0343_
*345 _0344_
*346 _0345_
*347 _0346_
*348 _0347_
*349 _0348_
*350 _0349_
*351 _0350_
*352 _0351_
*353 _0352_
*354 _0353_
*355 _0354_
*356 _0355_
*357 _0356_
*358 _0357_
*359 _0358_
*360 _0359_
*361 _0360_
*362 _0361_
*363 _0362_
*364 _0363_
*365 _0364_
*366 _0365_
*367 _0366_
*368 _0367_
*369 _0368_
*370 _0369_
*371 _0370_
*372 _0371_
*373 _0372_
*374 _0373_
*375 _0374_
*376 _0375_
*377 _0376_
*378 _0377_
*379 _0378_
*380 _0379_
*381 _0380_
*382 _0381_
*383 _0382_
*384 _0383_
*385 _0384_
*386 _0385_
*387 _0386_
*388 _0387_
*389 _0388_
*390 _0389_
*391 _0390_
*392 _0391_
*393 _0392_
*394 _0393_
*395 _0394_
*396 _0395_
*397 _0396_
*398 _0397_
*399 _0398_
*400 _0399_
*401 _0400_
*402 _0401_
*403 _0402_
*404 _0403_
*405 _0404_
*406 _0405_
*407 _0406_
*408 _0407_
*409 _0408_
*410 _0409_
*411 _0410_
*412 _0411_
*413 _0412_
*414 _0413_
*415 _0414_
*416 _0415_
*417 _0416_
*418 _0417_
*419 _0418_
*420 _0419_
*421 _0420_
*422 _0421_
*423 _0422_
*424 _0423_
*425 _0424_
*426 _0425_
*427 _0426_
*428 _0427_
*429 _0428_
*430 _0429_
*431 _0430_
*432 _0431_
*433 _0432_
*434 _0433_
*435 _0434_
*436 _0435_
*437 _0436_
*438 _0437_
*439 _0438_
*440 _0439_
*441 _0440_
*442 _0441_
*443 _0442_
*444 _0443_
*445 _0444_
*446 _0445_
*447 _0446_
*448 _0447_
*449 _0448_
*450 _0449_
*451 _0450_
*452 _0451_
*453 _0452_
*454 _0453_
*455 _0454_
*456 _0455_
*457 _0456_
*458 _0457_
*459 _0458_
*460 _0459_
*461 _0460_
*462 _0461_
*463 _0462_
*464 _0463_
*465 _0464_
*466 _0465_
*467 _0466_
*468 _0467_
*469 _0468_
*470 _0469_
*471 _0470_
*472 _0471_
*473 _0472_
*474 _0473_
*475 _0474_
*476 _0475_
*477 _0476_
*478 _0477_
*479 _0478_
*480 _0479_
*481 _0480_
*482 _0481_
*483 _0482_
*484 _0483_
*485 _0484_
*486 _0485_
*487 _0486_
*488 _0487_
*489 _0488_
*490 _0489_
*491 _0490_
*492 _0491_
*493 _0492_
*494 _0493_
*495 _0494_
*496 _0495_
*497 _0496_
*498 _0497_
*499 _0498_
*500 _0499_
*501 _0500_
*502 _0501_
*503 _0502_
*504 _0503_
*505 _0504_
*506 _0505_
*507 _0506_
*508 _0507_
*509 _0508_
*510 _0509_
*511 _0510_
*512 _0511_
*513 _0512_
*514 _0513_
*515 _0514_
*516 _0515_
*517 _0516_
*518 _0517_
*519 _0518_
*520 _0519_
*521 _0520_
*522 _0521_
*523 _0522_
*524 _0523_
*525 _0524_
*526 _0525_
*527 _0526_
*528 _0527_
*529 _0528_
*530 _0529_
*531 _0530_
*532 _0531_
*533 _0532_
*534 _0533_
*535 _0534_
*536 _0535_
*537 _0536_
*538 _0537_
*539 _0538_
*540 _0539_
*541 _0540_
*542 _0541_
*543 _0542_
*544 _0543_
*545 _0544_
*546 _0545_
*547 _0546_
*548 _0547_
*549 _0548_
*550 _0549_
*551 _0550_
*552 _0551_
*553 _0552_
*554 _0553_
*555 _0554_
*556 _0555_
*557 _0556_
*558 _0557_
*559 _0558_
*560 _0559_
*561 _0560_
*562 _0561_
*563 _0562_
*564 _0563_
*565 _0564_
*566 _0565_
*567 _0566_
*568 _0567_
*569 _0568_
*570 _0569_
*571 _0570_
*572 _0571_
*573 _0572_
*574 _0573_
*575 _0574_
*576 _0575_
*577 _0576_
*578 _0577_
*579 _0578_
*580 _0579_
*581 _0580_
*582 _0581_
*583 _0582_
*584 _0583_
*585 _0584_
*586 _0585_
*587 _0586_
*588 _0587_
*589 _0588_
*590 _0589_
*591 _0590_
*592 _0591_
*593 _0592_
*594 _0593_
*595 _0594_
*596 _0595_
*597 _0596_
*598 _0597_
*599 _0598_
*600 _0599_
*601 _0600_
*602 _0601_
*603 _0602_
*604 _0603_
*605 _0604_
*606 _0605_
*607 _0606_
*608 _0607_
*609 _0608_
*610 _0609_
*611 _0610_
*612 _0611_
*613 _0612_
*614 _0613_
*615 _0614_
*616 _0615_
*617 _0616_
*618 _0617_
*619 _0618_
*620 _0619_
*621 _0620_
*622 _0621_
*623 _0622_
*624 _0623_
*625 _0624_
*626 _0625_
*627 _0626_
*628 _0627_
*629 _0628_
*630 _0629_
*631 _0630_
*632 _0631_
*633 _0632_
*634 _0633_
*635 _0634_
*636 _0635_
*637 _0636_
*638 _0637_
*639 _0638_
*640 _0639_
*641 _0640_
*642 _0641_
*643 _0642_
*644 _0643_
*645 _0644_
*646 _0645_
*647 _0646_
*648 _0647_
*649 _0648_
*650 _0649_
*651 _0650_
*652 _0651_
*653 _0652_
*654 _0653_
*655 _0654_
*656 _0655_
*657 _0656_
*658 _0657_
*659 _0658_
*660 _0659_
*661 _0660_
*662 _0661_
*663 _0662_
*664 _0663_
*665 _0664_
*666 _0665_
*667 _0666_
*668 _0667_
*669 _0668_
*670 _0669_
*671 _0670_
*672 _0671_
*673 _0672_
*674 _0673_
*675 _0674_
*676 _0675_
*677 _0676_
*678 _0677_
*679 _0678_
*680 _0679_
*681 _0680_
*682 _0681_
*683 _0682_
*684 _0683_
*685 _0684_
*686 _0685_
*687 _0686_
*688 _0687_
*689 _0688_
*690 _0689_
*691 _0690_
*692 _0691_
*693 _0692_
*694 _0693_
*695 _0694_
*696 _0695_
*697 _0696_
*698 _0697_
*699 _0698_
*700 _0699_
*701 _0700_
*702 _0701_
*703 _0702_
*704 _0703_
*705 _0704_
*706 _0705_
*707 _0706_
*708 _0707_
*709 _0708_
*710 _0709_
*711 _0710_
*712 _0711_
*713 _0712_
*714 _0713_
*715 _0714_
*716 _0715_
*717 _0716_
*718 _0717_
*719 _0718_
*720 _0719_
*721 _0720_
*722 _0721_
*723 _0722_
*724 _0723_
*725 _0724_
*726 _0725_
*727 _0726_
*728 _0727_
*729 _0728_
*730 _0729_
*731 _0730_
*732 _0731_
*733 _0732_
*734 _0733_
*735 _0734_
*736 _0735_
*737 _0736_
*738 _0737_
*739 _0738_
*740 _0739_
*741 _0740_
*742 _0741_
*743 _0742_
*744 _0743_
*745 _0744_
*746 _0745_
*747 _0746_
*748 _0747_
*749 _0748_
*750 _0749_
*751 _0750_
*752 _0751_
*753 _0752_
*754 _0753_
*755 _0754_
*756 _0755_
*757 _0756_
*758 _0757_
*759 _0758_
*760 _0759_
*761 _0760_
*762 _0761_
*763 _0762_
*764 _0763_
*765 _0764_
*766 _0765_
*767 _0766_
*768 _0767_
*769 _0768_
*770 _0769_
*771 _0770_
*772 _0771_
*773 _0772_
*774 _0773_
*775 _0774_
*776 _0775_
*777 _0776_
*778 _0777_
*779 _0778_
*780 _0779_
*781 _0780_
*782 _0781_
*783 _0782_
*784 _0783_
*785 _0784_
*786 _0785_
*787 _0786_
*788 _0787_
*789 _0788_
*790 _0789_
*791 _0790_
*792 _0791_
*793 _0792_
*794 _0793_
*795 _0794_
*796 _0795_
*797 _0796_
*798 _0797_
*799 _0798_
*800 _0799_
*801 _0800_
*802 _0801_
*803 _0802_
*804 _0803_
*805 _0804_
*806 _0805_
*807 _0806_
*808 _0807_
*809 _0808_
*810 _0809_
*811 _0810_
*812 _0811_
*813 _0812_
*814 _0813_
*815 _0814_
*816 _0815_
*817 _0816_
*818 _0817_
*819 _0818_
*820 _0819_
*821 _0820_
*822 _0821_
*823 _0822_
*824 _0823_
*825 _0824_
*826 _0825_
*827 _0826_
*828 _0827_
*829 _0828_
*830 _0829_
*831 _0830_
*832 _0831_
*833 _0832_
*834 _0833_
*835 _0834_
*836 _0835_
*837 _0836_
*838 _0837_
*839 _0838_
*840 _0839_
*841 _0840_
*842 _0841_
*843 _0842_
*844 _0843_
*845 _0844_
*846 _0845_
*847 _0846_
*848 _0847_
*849 _0848_
*850 _0849_
*851 _0850_
*852 _0851_
*853 _0852_
*854 _0853_
*855 _0854_
*856 _0855_
*857 _0856_
*858 _0857_
*859 _0858_
*860 _0859_
*861 _0860_
*862 _0861_
*863 _0862_
*864 _0863_
*865 _0864_
*866 _0865_
*867 _0866_
*868 _0867_
*869 _0868_
*870 _0869_
*871 _0870_
*872 _0871_
*873 _0872_
*874 _0873_
*875 _0874_
*876 _0875_
*877 _0876_
*878 _0877_
*879 _0878_
*880 _0879_
*881 _0880_
*882 _0881_
*883 _0882_
*884 _0883_
*885 _0884_
*886 _0885_
*887 _0886_
*888 _0887_
*889 _0888_
*890 _0889_
*891 _0890_
*892 _0891_
*893 _0892_
*894 _0893_
*895 _0894_
*896 _0895_
*897 _0896_
*898 _0897_
*899 _0898_
*900 _0899_
*901 _0900_
*902 _0901_
*903 _0902_
*904 _0903_
*905 _0904_
*906 _0905_
*907 _0906_
*908 _0907_
*909 _0908_
*910 _0909_
*911 _0910_
*912 _0911_
*913 _0912_
*914 _0913_
*915 _0914_
*916 _0915_
*917 _0916_
*918 _0917_
*919 _0918_
*920 _0919_
*921 _0920_
*922 _0921_
*923 _0922_
*924 _0923_
*925 _0924_
*926 _0925_
*927 _0926_
*928 _0927_
*929 _0928_
*930 _0929_
*931 _0930_
*932 _0931_
*933 _0932_
*934 _0933_
*935 _0934_
*936 _0935_
*937 _0936_
*938 _0937_
*939 _0938_
*940 _0939_
*941 _0940_
*942 _0941_
*943 _0942_
*944 _0943_
*945 _0944_
*946 _0945_
*947 _0946_
*948 _0947_
*949 _0948_
*950 _0949_
*951 _0950_
*952 _0951_
*953 _0952_
*954 _0953_
*955 _0954_
*956 _0955_
*957 _0956_
*958 _0957_
*959 _0958_
*960 _0959_
*961 _0960_
*962 _0961_
*963 _0962_
*964 _0963_
*965 _0964_
*966 _0965_
*967 _0966_
*968 _0967_
*969 _0968_
*970 _0969_
*971 _0970_
*972 _0971_
*973 _0972_
*974 _0973_
*975 _0974_
*976 _0975_
*977 _0976_
*978 _0977_
*979 _0978_
*980 _0979_
*981 _0980_
*982 _0981_
*983 _0982_
*984 _0983_
*985 _0984_
*986 _0985_
*987 _0986_
*988 _0987_
*989 _0988_
*990 _0989_
*991 _0990_
*992 _0991_
*993 _0992_
*994 _0993_
*995 _0994_
*996 _0995_
*997 _0996_
*998 _0997_
*999 _0998_
*1000 _0999_
*1001 _1000_
*1002 _1001_
*1003 _1002_
*1004 _1003_
*1005 _1004_
*1006 _1005_
*1007 _1006_
*1008 _1007_
*1009 _1008_
*1010 _1009_
*1011 _1010_
*1012 _1011_
*1013 _1012_
*1014 _1013_
*1015 _1014_
*1016 _1015_
*1017 _1016_
*1018 _1017_
*1019 _1018_
*1020 _1019_
*1021 _1020_
*1022 _1021_
*1023 _1022_
*1024 _1023_
*1025 _1024_
*1026 _1025_
*1027 _1026_
*1028 _1027_
*1029 _1028_
*1030 _1029_
*1031 _1030_
*1032 _1031_
*1033 _1032_
*1034 _1033_
*1035 _1034_
*1036 _1035_
*1037 _1036_
*1038 _1037_
*1039 _1038_
*1040 _1039_
*1041 _1040_
*1042 _1041_
*1043 _1042_
*1044 _1043_
*1045 _1044_
*1046 _1045_
*1047 _1046_
*1048 _1047_
*1049 _1048_
*1050 _1049_
*1051 _1050_
*1052 _1051_
*1053 _1052_
*1054 _1053_
*1055 _1054_
*1056 _1055_
*1057 _1056_
*1058 _1057_
*1059 _1058_
*1060 _1059_
*1061 _1060_
*1062 _1061_
*1063 _1062_
*1064 _1063_
*1065 _1064_
*1066 _1065_
*1067 _1066_
*1068 _1067_
*1069 _1068_
*1070 _1069_
*1071 _1070_
*1072 _1071_
*1073 _1072_
*1074 _1073_
*1075 _1074_
*1076 _1075_
*1077 _1076_
*1078 _1077_
*1079 _1078_
*1080 _1079_
*1081 _1080_
*1082 _1081_
*1083 _1082_
*1084 _1083_
*1085 _1084_
*1086 _1085_
*1087 _1086_
*1088 _1087_
*1089 _1088_
*1090 _1089_
*1091 _1090_
*1092 _1091_
*1093 _1092_
*1094 _1093_
*1095 _1094_
*1096 _1095_
*1097 _1096_
*1098 _1097_
*1099 _1098_
*1100 _1099_
*1101 _1100_
*1102 _1101_
*1103 _1102_
*1104 _1103_
*1105 _1104_
*1106 _1105_
*1107 _1106_
*1108 _1107_
*1109 _1108_
*1110 _1109_
*1111 _1110_
*1112 _1111_
*1113 _1112_
*1114 _1113_
*1115 _1114_
*1116 _1115_
*1117 _1116_
*1118 _1117_
*1119 _1118_
*1120 _1119_
*1121 _1120_
*1122 _1121_
*1123 _1122_
*1124 _1123_
*1125 _1124_
*1126 _1125_
*1127 _1126_
*1128 _1127_
*1129 _1128_
*1130 _1129_
*1131 _1130_
*1132 _1131_
*1133 _1132_
*1134 _1133_
*1135 _1134_
*1136 _1135_
*1137 _1136_
*1138 _1137_
*1139 _1138_
*1140 _1139_
*1141 _1140_
*1142 _1141_
*1143 _1142_
*1144 _1143_
*1145 _1144_
*1146 _1145_
*1147 _1146_
*1148 _1147_
*1149 _1148_
*1150 _1149_
*1151 _1150_
*1152 _1151_
*1153 _1152_
*1154 _1153_
*1155 _1154_
*1156 _1155_
*1157 _1156_
*1158 _1157_
*1159 _1158_
*1160 _1159_
*1161 _1160_
*1162 _1161_
*1163 _1162_
*1164 _1163_
*1165 _1164_
*1166 _1165_
*1167 _1166_
*1168 _1167_
*1169 _1168_
*1170 _1169_
*1171 _1170_
*1172 _1171_
*1173 _1172_
*1174 _1173_
*1175 _1174_
*1176 _1175_
*1177 _1176_
*1178 _1177_
*1179 _1178_
*1180 _1179_
*1181 _1180_
*1182 clk
*1183 credit_pi_route_inst\.l_counters_inst\.o_credits\[1\]
*1184 credit_pi_route_inst\.l_counters_inst\.o_credits\[2\]
*1185 credit_pi_route_inst\.l_counters_inst\.o_credits\[3\]
*1186 credit_pi_route_inst\.l_counters_inst\.o_credits\[6\]
*1187 credit_pi_route_inst\.l_counters_inst\.o_credits\[7\]
*1188 credit_pi_route_inst\.l_counters_inst\.o_credits\[8\]
*1189 credit_pi_route_inst\.r_counters_inst\.o_credits\[1\]
*1190 credit_pi_route_inst\.r_counters_inst\.o_credits\[2\]
*1191 credit_pi_route_inst\.r_counters_inst\.o_credits\[3\]
*1192 credit_pi_route_inst\.r_counters_inst\.o_credits\[6\]
*1193 credit_pi_route_inst\.r_counters_inst\.o_credits\[7\]
*1194 credit_pi_route_inst\.r_counters_inst\.o_credits\[8\]
*1195 credit_pi_route_inst\.u0_counters_inst\.o_credits\[1\]
*1196 credit_pi_route_inst\.u0_counters_inst\.o_credits\[2\]
*1197 credit_pi_route_inst\.u0_counters_inst\.o_credits\[3\]
*1198 credit_pi_route_inst\.u0_counters_inst\.o_credits\[5\]
*1199 credit_pi_route_inst\.u0_counters_inst\.o_credits\[6\]
*1200 credit_pi_route_inst\.u0_counters_inst\.o_credits\[7\]
*1201 credit_pi_route_inst\.u0_counters_inst\.o_credits\[8\]
*1202 credit_pi_route_inst\.u1_counters_inst\.o_credits\[1\]
*1203 credit_pi_route_inst\.u1_counters_inst\.o_credits\[2\]
*1204 credit_pi_route_inst\.u1_counters_inst\.o_credits\[3\]
*1205 credit_pi_route_inst\.u1_counters_inst\.o_credits\[5\]
*1206 credit_pi_route_inst\.u1_counters_inst\.o_credits\[6\]
*1207 credit_pi_route_inst\.u1_counters_inst\.o_credits\[7\]
*1208 credit_pi_route_inst\.u1_counters_inst\.o_credits\[8\]
*1209 l_i[0]
*1210 l_i[10]
*1211 l_i[11]
*1212 l_i[12]
*1213 l_i[13]
*1214 l_i[14]
*1215 l_i[15]
*1216 l_i[16]
*1217 l_i[17]
*1218 l_i[18]
*1219 l_i[19]
*1220 l_i[1]
*1221 l_i[20]
*1222 l_i[21]
*1223 l_i[22]
*1224 l_i[23]
*1225 l_i[24]
*1226 l_i[25]
*1227 l_i[26]
*1228 l_i[27]
*1229 l_i[28]
*1230 l_i[29]
*1231 l_i[2]
*1232 l_i[30]
*1233 l_i[31]
*1234 l_i[32]
*1235 l_i[33]
*1236 l_i[34]
*1237 l_i[35]
*1238 l_i[36]
*1239 l_i[37]
*1240 l_i[38]
*1241 l_i[39]
*1242 l_i[3]
*1243 l_i[40]
*1244 l_i[41]
*1245 l_i[42]
*1246 l_i[43]
*1247 l_i[44]
*1248 l_i[45]
*1249 l_i[46]
*1250 l_i[47]
*1251 l_i[48]
*1252 l_i[49]
*1253 l_i[4]
*1254 l_i[50]
*1255 l_i[51]
*1256 l_i[52]
*1257 l_i[53]
*1258 l_i[54]
*1259 l_i[55]
*1260 l_i[56]
*1261 l_i[57]
*1262 l_i[58]
*1263 l_i[59]
*1264 l_i[5]
*1265 l_i[60]
*1266 l_i[61]
*1267 l_i[62]
*1268 l_i[63]
*1269 l_i[64]
*1270 l_i[65]
*1271 l_i[66]
*1272 l_i[67]
*1273 l_i[68]
*1274 l_i[69]
*1275 l_i[6]
*1276 l_i[70]
*1277 l_i[71]
*1278 l_i[72]
*1279 l_i[73]
*1280 l_i[7]
*1281 l_i[8]
*1282 l_i[9]
*1283 net314
*1284 net315
*1285 l_i_v[0]
*1286 l_i_v[1]
*1287 net316
*1288 net317
*1289 net318
*1290 net319
*1291 net320
*1292 net321
*1293 net322
*1294 net323
*1295 net324
*1296 net325
*1297 net326
*1298 net327
*1299 net328
*1300 net329
*1301 net330
*1302 net331
*1303 net332
*1304 net333
*1305 net334
*1306 net335
*1307 net336
*1308 net337
*1309 net338
*1310 net339
*1311 net340
*1312 net341
*1313 net342
*1314 net343
*1315 net344
*1316 net345
*1317 net346
*1318 net347
*1319 net348
*1320 net349
*1321 net350
*1322 net351
*1323 net352
*1324 l_o_credit_gnt[0]
*1325 l_o_credit_gnt[1]
*1326 net353
*1327 net354
*1328 r_i[0]
*1329 r_i[10]
*1330 r_i[11]
*1331 r_i[12]
*1332 r_i[13]
*1333 r_i[14]
*1334 r_i[15]
*1335 r_i[16]
*1336 r_i[17]
*1337 r_i[18]
*1338 r_i[19]
*1339 r_i[1]
*1340 r_i[20]
*1341 r_i[21]
*1342 r_i[22]
*1343 r_i[23]
*1344 r_i[24]
*1345 r_i[25]
*1346 r_i[26]
*1347 r_i[27]
*1348 r_i[28]
*1349 r_i[29]
*1350 r_i[2]
*1351 r_i[30]
*1352 r_i[31]
*1353 r_i[32]
*1354 r_i[33]
*1355 r_i[34]
*1356 r_i[35]
*1357 r_i[36]
*1358 r_i[37]
*1359 r_i[38]
*1360 r_i[39]
*1361 r_i[3]
*1362 r_i[40]
*1363 r_i[41]
*1364 r_i[42]
*1365 r_i[43]
*1366 r_i[44]
*1367 r_i[45]
*1368 r_i[46]
*1369 r_i[47]
*1370 r_i[48]
*1371 r_i[49]
*1372 r_i[4]
*1373 r_i[50]
*1374 r_i[51]
*1375 r_i[52]
*1376 r_i[53]
*1377 r_i[54]
*1378 r_i[55]
*1379 r_i[56]
*1380 r_i[57]
*1381 r_i[58]
*1382 r_i[59]
*1383 r_i[5]
*1384 r_i[60]
*1385 r_i[61]
*1386 r_i[62]
*1387 r_i[63]
*1388 r_i[64]
*1389 r_i[65]
*1390 r_i[66]
*1391 r_i[67]
*1392 r_i[68]
*1393 r_i[69]
*1394 r_i[6]
*1395 r_i[70]
*1396 r_i[71]
*1397 r_i[72]
*1398 r_i[73]
*1399 r_i[7]
*1400 r_i[8]
*1401 r_i[9]
*1402 net355
*1403 net356
*1404 r_i_v[0]
*1405 r_i_v[1]
*1406 net357
*1407 net358
*1408 net359
*1409 net360
*1410 net361
*1411 net362
*1412 net363
*1413 net364
*1414 net365
*1415 net366
*1416 net367
*1417 net368
*1418 net369
*1419 net370
*1420 net371
*1421 net372
*1422 net373
*1423 net374
*1424 net375
*1425 net376
*1426 net377
*1427 net378
*1428 net379
*1429 net380
*1430 net381
*1431 net382
*1432 net383
*1433 net384
*1434 net385
*1435 net386
*1436 net387
*1437 net388
*1438 net389
*1439 net390
*1440 net391
*1441 net392
*1442 net393
*1443 r_o_credit_gnt[0]
*1444 r_o_credit_gnt[1]
*1445 net394
*1446 net395
*1447 rst
*1448 u0_i[0]
*1449 u0_i[10]
*1450 u0_i[11]
*1451 u0_i[12]
*1452 u0_i[13]
*1453 u0_i[14]
*1454 u0_i[15]
*1455 u0_i[16]
*1456 u0_i[17]
*1457 u0_i[18]
*1458 u0_i[19]
*1459 u0_i[1]
*1460 u0_i[20]
*1461 u0_i[21]
*1462 u0_i[22]
*1463 u0_i[23]
*1464 u0_i[24]
*1465 u0_i[25]
*1466 u0_i[26]
*1467 u0_i[27]
*1468 u0_i[28]
*1469 u0_i[29]
*1470 u0_i[2]
*1471 u0_i[30]
*1472 u0_i[31]
*1473 u0_i[32]
*1474 u0_i[33]
*1475 u0_i[34]
*1476 u0_i[35]
*1477 u0_i[36]
*1478 u0_i[37]
*1479 u0_i[38]
*1480 u0_i[39]
*1481 u0_i[3]
*1482 u0_i[40]
*1483 u0_i[41]
*1484 u0_i[42]
*1485 u0_i[43]
*1486 u0_i[44]
*1487 u0_i[45]
*1488 u0_i[46]
*1489 u0_i[47]
*1490 u0_i[48]
*1491 u0_i[49]
*1492 u0_i[4]
*1493 u0_i[50]
*1494 u0_i[51]
*1495 u0_i[52]
*1496 u0_i[53]
*1497 u0_i[54]
*1498 u0_i[55]
*1499 u0_i[56]
*1500 u0_i[57]
*1501 u0_i[58]
*1502 u0_i[59]
*1503 u0_i[5]
*1504 u0_i[60]
*1505 u0_i[61]
*1506 u0_i[62]
*1507 u0_i[63]
*1508 u0_i[64]
*1509 u0_i[65]
*1510 u0_i[66]
*1511 u0_i[67]
*1512 u0_i[68]
*1513 u0_i[69]
*1514 u0_i[6]
*1515 u0_i[70]
*1516 u0_i[71]
*1517 u0_i[72]
*1518 u0_i[73]
*1519 u0_i[7]
*1520 u0_i[8]
*1521 u0_i[9]
*1522 net396
*1523 net397
*1524 u0_i_v[0]
*1525 u0_i_v[1]
*1526 net398
*1527 net399
*1528 net400
*1529 net401
*1530 net402
*1531 net403
*1532 net404
*1533 net405
*1534 net406
*1535 net407
*1536 net408
*1537 net409
*1538 net410
*1539 net411
*1540 net412
*1541 net413
*1542 net414
*1543 net415
*1544 net416
*1545 net417
*1546 net418
*1547 net419
*1548 net420
*1549 net421
*1550 net422
*1551 net423
*1552 net424
*1553 net425
*1554 net426
*1555 net427
*1556 net428
*1557 net429
*1558 net430
*1559 net431
*1560 net432
*1561 net433
*1562 net434
*1563 u0_o_credit_gnt[0]
*1564 u0_o_credit_gnt[1]
*1565 net435
*1566 net436
*1567 u1_i[0]
*1568 u1_i[10]
*1569 u1_i[11]
*1570 u1_i[12]
*1571 u1_i[13]
*1572 u1_i[14]
*1573 u1_i[15]
*1574 u1_i[16]
*1575 u1_i[17]
*1576 u1_i[18]
*1577 u1_i[19]
*1578 u1_i[1]
*1579 u1_i[20]
*1580 u1_i[21]
*1581 u1_i[22]
*1582 u1_i[23]
*1583 u1_i[24]
*1584 u1_i[25]
*1585 u1_i[26]
*1586 u1_i[27]
*1587 u1_i[28]
*1588 u1_i[29]
*1589 u1_i[2]
*1590 u1_i[30]
*1591 u1_i[31]
*1592 u1_i[32]
*1593 u1_i[33]
*1594 u1_i[34]
*1595 u1_i[35]
*1596 u1_i[36]
*1597 u1_i[37]
*1598 u1_i[38]
*1599 u1_i[39]
*1600 u1_i[3]
*1601 u1_i[40]
*1602 u1_i[41]
*1603 u1_i[42]
*1604 u1_i[43]
*1605 u1_i[44]
*1606 u1_i[45]
*1607 u1_i[46]
*1608 u1_i[47]
*1609 u1_i[48]
*1610 u1_i[49]
*1611 u1_i[4]
*1612 u1_i[50]
*1613 u1_i[51]
*1614 u1_i[52]
*1615 u1_i[53]
*1616 u1_i[54]
*1617 u1_i[55]
*1618 u1_i[56]
*1619 u1_i[57]
*1620 u1_i[58]
*1621 u1_i[59]
*1622 u1_i[5]
*1623 u1_i[60]
*1624 u1_i[61]
*1625 u1_i[62]
*1626 u1_i[63]
*1627 u1_i[64]
*1628 u1_i[65]
*1629 u1_i[66]
*1630 u1_i[67]
*1631 u1_i[68]
*1632 u1_i[69]
*1633 u1_i[6]
*1634 u1_i[70]
*1635 u1_i[71]
*1636 u1_i[72]
*1637 u1_i[73]
*1638 u1_i[7]
*1639 u1_i[8]
*1640 u1_i[9]
*1641 net437
*1642 net438
*1643 u1_i_v[0]
*1644 u1_i_v[1]
*1645 net439
*1646 net440
*1647 net441
*1648 net442
*1649 net443
*1650 net444
*1651 net445
*1652 net446
*1653 net447
*1654 net448
*1655 net449
*1656 net450
*1657 net451
*1658 net452
*1659 net453
*1660 net454
*1661 net455
*1662 net456
*1663 net457
*1664 net458
*1665 net459
*1666 net460
*1667 net461
*1668 net462
*1669 net463
*1670 net464
*1671 net465
*1672 net466
*1673 net467
*1674 net468
*1675 net469
*1676 net470
*1677 net471
*1678 net472
*1679 net473
*1680 net474
*1681 net475
*1682 u1_o_credit_gnt[0]
*1683 u1_o_credit_gnt[1]
*1684 net476
*1685 net477
*1688 net1
*1689 net2
*1690 net3
*1691 net4
*1692 net5
*1693 net6
*1694 net7
*1695 net8
*1696 net9
*1697 net10
*1698 net11
*1699 net12
*1700 net13
*1701 net14
*1702 net15
*1703 net16
*1704 net17
*1705 net18
*1706 net19
*1707 net20
*1708 net21
*1709 net22
*1710 net23
*1711 net24
*1712 net25
*1713 net26
*1714 net27
*1715 net28
*1716 net29
*1717 net30
*1718 net31
*1719 net32
*1720 net33
*1721 net34
*1722 net35
*1723 net36
*1724 net37
*1725 net38
*1726 net39
*1727 net40
*1728 net41
*1729 net42
*1730 net43
*1731 net44
*1732 net45
*1733 net46
*1734 net47
*1735 net48
*1736 net49
*1737 net50
*1738 net51
*1739 net52
*1740 net53
*1741 net54
*1742 net55
*1743 net56
*1744 net57
*1745 net58
*1746 net59
*1747 net60
*1748 net61
*1749 net62
*1750 net63
*1751 net64
*1752 net65
*1753 net66
*1754 net67
*1755 net68
*1756 net69
*1757 net70
*1758 net71
*1759 net72
*1760 net73
*1761 net74
*1762 net75
*1763 net76
*1764 net77
*1765 net78
*1766 net79
*1767 net80
*1768 net81
*1769 net82
*1770 net83
*1771 net84
*1772 net85
*1773 net86
*1774 net87
*1775 net88
*1776 net89
*1777 net90
*1778 net91
*1779 net92
*1780 net93
*1781 net94
*1782 net95
*1783 net96
*1784 net97
*1785 net98
*1786 net99
*1787 net100
*1788 net101
*1789 net102
*1790 net103
*1791 net104
*1792 net105
*1793 net106
*1794 net107
*1795 net108
*1796 net109
*1797 net110
*1798 net111
*1799 net112
*1800 net113
*1801 net114
*1802 net115
*1803 net116
*1804 net117
*1805 net118
*1806 net119
*1807 net120
*1808 net121
*1809 net122
*1810 net123
*1811 net124
*1812 net125
*1813 net126
*1814 net127
*1815 net128
*1816 net129
*1817 net130
*1818 net131
*1819 net132
*1820 net133
*1821 net134
*1822 net135
*1823 net136
*1824 net137
*1825 net138
*1826 net139
*1827 net140
*1828 net141
*1829 net142
*1830 net143
*1831 net144
*1832 net145
*1833 net146
*1834 net147
*1835 net148
*1836 net149
*1837 net150
*1838 net151
*1839 net152
*1840 net153
*1841 net154
*1842 net155
*1843 net156
*1844 net157
*1845 net158
*1846 net159
*1847 net160
*1848 net161
*1849 net162
*1850 net163
*1851 net164
*1852 net165
*1853 net166
*1854 net167
*1855 net168
*1856 net169
*1857 net170
*1858 net171
*1859 net172
*1860 net173
*1861 net174
*1862 net175
*1863 net176
*1864 net177
*1865 net178
*1866 net179
*1867 net180
*1868 net181
*1869 net182
*1870 net183
*1871 net184
*1872 net185
*1873 net186
*1874 net187
*1875 net188
*1876 net189
*1877 net190
*1878 net191
*1879 net192
*1880 net193
*1881 net194
*1882 net195
*1883 net196
*1884 net197
*1885 net198
*1886 net199
*1887 net200
*1888 net201
*1889 net202
*1890 net203
*1891 net204
*1892 net205
*1893 net206
*1894 net207
*1895 net208
*1896 net209
*1897 net210
*1898 net211
*1899 net212
*1900 net213
*1901 net214
*1902 net215
*1903 net216
*1904 net217
*1905 net218
*1906 net219
*1907 net220
*1908 net221
*1909 net222
*1910 net223
*1911 net224
*1912 net225
*1913 net226
*1914 net227
*1915 net228
*1916 net229
*1917 net230
*1918 net231
*1919 net232
*1920 net233
*1921 net234
*1922 net235
*1923 net236
*1924 net237
*1925 net238
*1926 net239
*1927 net240
*1928 net241
*1929 net242
*1930 net243
*1931 net244
*1932 net245
*1933 net246
*1934 net247
*1935 net248
*1936 net249
*1937 net250
*1938 net251
*1939 net252
*1940 net253
*1941 net254
*1942 net255
*1943 net256
*1944 net257
*1945 net258
*1946 net259
*1947 net260
*1948 net261
*1949 net262
*1950 net263
*1951 net264
*1952 net265
*1953 net266
*1954 net267
*1955 net268
*1956 net269
*1957 net270
*1958 net271
*1959 net272
*1960 net273
*1961 net274
*1962 net275
*1963 net276
*1964 net277
*1965 net278
*1966 net279
*1967 net280
*1968 net281
*1969 net282
*1970 net283
*1971 net284
*1972 net285
*1973 net286
*1974 net287
*1975 net288
*1976 net289
*1977 net290
*1978 net291
*1979 net292
*1980 net293
*1981 net294
*1982 net295
*1983 net296
*1984 net297
*1985 net298
*1986 net299
*1987 net300
*1988 net301
*1989 net302
*1990 net303
*1991 net304
*1992 net305
*1993 net306
*1994 net307
*1995 net308
*1996 net309
*1997 net310
*1998 net311
*1999 net312
*2000 net313
*2001 l_i_bp[0]
*2002 l_i_bp[1]
*2003 l_o[0]
*2004 l_o[10]
*2005 l_o[11]
*2006 l_o[12]
*2007 l_o[13]
*2008 l_o[14]
*2009 l_o[15]
*2010 l_o[16]
*2011 l_o[17]
*2012 l_o[18]
*2013 l_o[19]
*2014 l_o[1]
*2015 l_o[20]
*2016 l_o[21]
*2017 l_o[22]
*2018 l_o[23]
*2019 l_o[24]
*2020 l_o[25]
*2021 l_o[26]
*2022 l_o[27]
*2023 l_o[28]
*2024 l_o[29]
*2025 l_o[2]
*2026 l_o[30]
*2027 l_o[31]
*2028 l_o[32]
*2029 l_o[33]
*2030 l_o[34]
*2031 l_o[35]
*2032 l_o[36]
*2033 l_o[3]
*2034 l_o[4]
*2035 l_o[5]
*2036 l_o[6]
*2037 l_o[7]
*2038 l_o[8]
*2039 l_o[9]
*2040 l_o_v[0]
*2041 l_o_v[1]
*2042 r_i_bp[0]
*2043 r_i_bp[1]
*2044 r_o[0]
*2045 r_o[10]
*2046 r_o[11]
*2047 r_o[12]
*2048 r_o[13]
*2049 r_o[14]
*2050 r_o[15]
*2051 r_o[16]
*2052 r_o[17]
*2053 r_o[18]
*2054 r_o[19]
*2055 r_o[1]
*2056 r_o[20]
*2057 r_o[21]
*2058 r_o[22]
*2059 r_o[23]
*2060 r_o[24]
*2061 r_o[25]
*2062 r_o[26]
*2063 r_o[27]
*2064 r_o[28]
*2065 r_o[29]
*2066 r_o[2]
*2067 r_o[30]
*2068 r_o[31]
*2069 r_o[32]
*2070 r_o[33]
*2071 r_o[34]
*2072 r_o[35]
*2073 r_o[36]
*2074 r_o[3]
*2075 r_o[4]
*2076 r_o[5]
*2077 r_o[6]
*2078 r_o[7]
*2079 r_o[8]
*2080 r_o[9]
*2081 r_o_v[0]
*2082 r_o_v[1]
*2083 u0_i_bp[0]
*2084 u0_i_bp[1]
*2085 u0_o[0]
*2086 u0_o[10]
*2087 u0_o[11]
*2088 u0_o[12]
*2089 u0_o[13]
*2090 u0_o[14]
*2091 u0_o[15]
*2092 u0_o[16]
*2093 u0_o[17]
*2094 u0_o[18]
*2095 u0_o[19]
*2096 u0_o[1]
*2097 u0_o[20]
*2098 u0_o[21]
*2099 u0_o[22]
*2100 u0_o[23]
*2101 u0_o[24]
*2102 u0_o[25]
*2103 u0_o[26]
*2104 u0_o[27]
*2105 u0_o[28]
*2106 u0_o[29]
*2107 u0_o[2]
*2108 u0_o[30]
*2109 u0_o[31]
*2110 u0_o[32]
*2111 u0_o[33]
*2112 u0_o[34]
*2113 u0_o[35]
*2114 u0_o[36]
*2115 u0_o[3]
*2116 u0_o[4]
*2117 u0_o[5]
*2118 u0_o[6]
*2119 u0_o[7]
*2120 u0_o[8]
*2121 u0_o[9]
*2122 u0_o_v[0]
*2123 u0_o_v[1]
*2124 u1_i_bp[0]
*2125 u1_i_bp[1]
*2126 u1_o[0]
*2127 u1_o[10]
*2128 u1_o[11]
*2129 u1_o[12]
*2130 u1_o[13]
*2131 u1_o[14]
*2132 u1_o[15]
*2133 u1_o[16]
*2134 u1_o[17]
*2135 u1_o[18]
*2136 u1_o[19]
*2137 u1_o[1]
*2138 u1_o[20]
*2139 u1_o[21]
*2140 u1_o[22]
*2141 u1_o[23]
*2142 u1_o[24]
*2143 u1_o[25]
*2144 u1_o[26]
*2145 u1_o[27]
*2146 u1_o[28]
*2147 u1_o[29]
*2148 u1_o[2]
*2149 u1_o[30]
*2150 u1_o[31]
*2151 u1_o[32]
*2152 u1_o[33]
*2153 u1_o[34]
*2154 u1_o[35]
*2155 u1_o[36]
*2156 u1_o[3]
*2157 u1_o[4]
*2158 u1_o[5]
*2159 u1_o[6]
*2160 u1_o[7]
*2161 u1_o[8]
*2162 u1_o[9]
*2163 u1_o_v[0]
*2164 u1_o_v[1]
*2165 clknet_0_clk
*2166 clknet_2_0__leaf_clk
*2167 clknet_2_1__leaf_clk
*2168 clknet_2_2__leaf_clk
*2169 clknet_2_3__leaf_clk
*2170 _1181_
*2171 _1182_
*2172 _1183_
*2173 _1184_
*2174 _1185_
*2175 _1186_
*2176 _1187_
*2177 _1188_
*2178 _1189_
*2179 _1190_
*2180 _1191_
*2181 _1192_
*2182 _1193_
*2183 _1194_
*2184 _1195_
*2185 _1196_
*2186 _1197_
*2187 _1198_
*2188 _1199_
*2189 _1200_
*2190 _1201_
*2191 _1202_
*2192 _1203_
*2193 _1204_
*2194 _1205_
*2195 _1206_
*2196 _1207_
*2197 _1208_
*2198 _1209_
*2199 _1210_
*2200 _1211_
*2201 _1212_
*2202 _1213_
*2203 _1214_
*2204 _1215_
*2205 _1216_
*2206 _1217_
*2207 _1218_
*2208 _1219_
*2209 _1220_
*2210 _1221_
*2211 _1222_
*2212 _1223_
*2213 _1224_
*2214 _1225_
*2215 _1226_
*2216 _1227_
*2217 _1228_
*2218 _1229_
*2219 _1230_
*2220 _1231_
*2221 _1232_