*SPEF "ieee 1481-1999"
*DESIGN "pi_switch"
*DATE "01:36:33 Monday July 07, 2025"
*VENDOR "The OpenROAD Project"
*PROGRAM "OpenROAD"
*VERSION "v2.0-21872-gd51df1dea5"
*DESIGN_FLOW "NAME_SCOPE LOCAL" "PIN_CAP NONE"
*DIVIDER /
*DELIMITER :
*BUS_DELIMITER []
*T_UNIT 1 NS
*C_UNIT 1 PF
*R_UNIT 1 OHM
*L_UNIT 1 HENRY

*NAME_MAP
*1 _0000_
*2 _0001_
*3 _0002_
*4 _0003_
*5 _0004_
*6 _0005_
*7 _0006_
*8 _0007_
*9 _0008_
*10 _0009_
*11 _0010_
*12 _0011_
*13 _0012_
*14 _0013_
*15 _0014_
*16 _0015_
*17 _0016_
*18 _0017_
*19 _0018_
*20 _0019_
*21 _0020_
*22 _0021_
*23 _0022_
*24 _0023_
*25 _0024_
*26 _0025_
*27 _0026_
*28 _0027_
*29 _0028_
*30 _0029_
*31 _0030_
*32 _0031_
*33 _0032_
*34 _0033_
*35 _0034_
*36 _0035_
*37 _0036_
*38 _0037_
*39 _0038_
*40 _0039_
*41 _0040_
*42 _0041_
*43 _0042_
*44 _0043_
*45 _0044_
*46 _0045_
*47 _0046_
*48 _0047_
*49 _0048_
*50 _0049_
*51 _0050_
*52 _0051_
*53 _0052_
*54 _0053_
*55 _0054_
*56 _0055_
*57 _0056_
*58 _0057_
*59 _0058_
*60 _0059_
*61 _0060_
*62 _0061_
*63 _0062_
*64 _0063_
*65 _0064_
*66 _0065_
*67 _0066_
*68 _0067_
*69 _0068_
*70 _0069_
*71 _0070_
*72 _0071_
*73 _0072_
*74 _0073_
*75 _0074_
*76 _0075_
*77 _0076_
*78 _0077_
*79 _0078_
*80 _0079_
*81 _0080_
*82 _0081_
*83 _0082_
*84 _0083_
*85 _0084_
*86 _0085_
*87 _0086_
*88 _0087_
*89 _0088_
*90 _0089_
*91 _0090_
*92 _0091_
*93 _0092_
*94 _0093_
*95 _0094_
*96 _0095_
*97 _0096_
*98 _0097_
*99 _0098_
*100 _0099_
*101 _0100_
*102 _0101_
*103 _0102_
*104 _0103_
*105 _0104_
*106 _0105_
*107 _0106_
*108 _0107_
*109 _0108_
*110 _0109_
*111 _0110_
*112 _0111_
*113 _0112_
*114 _0113_
*115 _0114_
*116 _0115_
*117 _0116_
*118 _0117_
*119 _0118_
*120 _0119_
*121 _0120_
*122 _0121_
*123 _0122_
*124 _0123_
*125 _0124_
*126 _0125_
*127 _0126_
*128 _0127_
*129 _0128_
*130 _0129_
*131 _0130_
*132 _0131_
*133 _0132_
*134 _0133_
*135 _0134_
*136 _0135_
*137 _0136_
*138 _0137_
*139 _0138_
*140 _0139_
*141 _0140_
*142 _0141_
*143 _0142_
*144 _0143_
*145 _0144_
*146 _0145_
*147 _0146_
*148 _0147_
*149 _0148_
*150 _0149_
*151 _0150_
*152 _0151_
*153 _0152_
*154 _0153_
*155 _0154_
*156 _0155_
*157 _0156_
*158 _0157_
*159 _0158_
*160 _0159_
*161 _0160_
*162 _0161_
*163 _0162_
*164 _0163_
*165 _0164_
*166 _0165_
*167 _0166_
*168 _0167_
*169 _0168_
*170 _0169_
*171 _0170_
*172 _0171_
*173 _0172_
*174 _0173_
*175 _0174_
*176 _0175_
*177 _0176_
*178 _0177_
*179 _0178_
*180 _0179_
*181 _0180_
*182 _0181_
*183 _0182_
*184 _0183_
*185 _0184_
*186 _0185_
*187 _0186_
*188 _0187_
*189 _0188_
*190 _0189_
*191 _0190_
*192 _0191_
*193 _0192_
*194 _0193_
*195 _0194_
*196 _0195_
*197 _0196_
*198 _0197_
*199 _0198_
*200 _0199_
*201 _0200_
*202 _0201_
*203 _0202_
*204 _0203_
*205 _0204_
*206 _0205_
*207 _0206_
*208 _0207_
*209 _0208_
*210 _0209_
*211 _0210_
*212 _0211_
*213 _0212_
*214 _0213_
*215 _0214_
*216 _0215_
*217 _0216_
*218 _0217_
*219 _0218_
*220 _0219_
*221 _0220_
*222 _0221_
*223 _0222_
*224 _0223_
*225 _0224_
*226 _0225_
*227 _0226_
*228 _0227_
*229 _0228_
*230 _0229_
*231 _0230_
*232 _0231_
*233 _0232_
*234 _0233_
*235 _0234_
*236 _0235_
*237 _0236_
*238 _0237_
*239 _0238_
*240 _0239_
*241 _0240_
*242 _0241_
*243 _0242_
*244 _0243_
*245 _0244_
*246 _0245_
*247 _0246_
*248 _0247_
*249 _0248_
*250 _0249_
*251 _0250_
*252 _0251_
*253 _0252_
*254 _0253_
*255 _0254_
*256 _0255_
*257 _0256_
*258 _0257_
*259 _0258_
*260 _0259_
*261 _0260_
*262 _0261_
*263 _0262_
*264 _0263_
*265 _0264_
*266 _0265_
*267 _0266_
*268 _0267_
*269 _0268_
*270 _0269_
*271 _0270_
*272 _0271_
*273 _0272_
*274 _0273_
*275 _0274_
*276 _0275_
*277 _0276_
*278 _0277_
*279 _0278_
*280 _0279_
*281 _0280_
*282 _0281_
*283 _0282_
*284 _0283_
*285 _0284_
*286 _0285_
*287 _0286_
*288 _0287_
*289 _0288_
*290 _0289_
*291 _0290_
*292 _0291_
*293 _0292_
*294 _0293_
*295 _0294_
*296 _0295_
*297 _0296_
*298 _0297_
*299 _0298_
*300 _0299_
*301 _0300_
*302 _0301_
*303 _0302_
*304 _0303_
*305 _0304_
*306 _0305_
*307 _0306_
*308 _0307_
*309 _0308_
*310 _0309_
*311 _0310_
*312 _0311_
*313 _0312_
*314 _0313_
*315 _0314_
*316 _0315_
*317 _0316_
*318 _0317_
*319 _0318_
*320 _0319_
*321 _0320_
*322 _0321_
*323 _0322_
*324 _0323_
*325 _0324_
*326 _0325_
*327 _0326_
*328 _0327_
*329 _0328_
*330 _0329_
*331 _0330_
*332 _0331_
*333 _0332_
*334 _0333_
*335 _0334_
*336 _0335_
*337 _0336_
*338 _0337_
*339 _0338_
*340 _0339_
*341 _0340_
*342 _0341_
*343 _0342_
*344 _0343_
*345 _0344_
*346 _0345_
*347 _0346_
*348 _0347_
*349 _0348_
*350 _0349_
*351 _0350_
*352 _0351_
*353 _0352_
*354 _0353_
*355 _0354_
*356 _0355_
*357 _0356_
*358 _0357_
*359 _0358_
*360 _0359_
*361 _0360_
*362 _0361_
*363 _0362_
*364 _0363_
*365 _0364_
*366 _0365_
*367 _0366_
*368 _0367_
*369 _0368_
*370 _0369_
*371 _0370_
*372 _0371_
*373 _0372_
*374 _0373_
*375 _0374_
*376 _0375_
*377 _0376_
*378 _0377_
*379 _0378_
*380 _0379_
*381 _0380_
*382 _0381_
*383 _0382_
*384 _0383_
*385 _0384_
*386 _0385_
*387 _0386_
*388 _0387_
*389 _0388_
*390 _0389_
*391 _0390_
*392 _0391_
*393 _0392_
*394 _0393_
*395 _0394_
*396 _0395_
*397 _0396_
*398 _0397_
*399 _0398_
*400 _0399_
*401 _0400_
*402 _0401_
*403 _0402_
*404 _0403_
*405 _0404_
*406 _0405_
*407 _0406_
*408 _0407_
*409 _0408_
*410 _0409_
*411 _0410_
*412 _0411_
*413 _0412_
*414 _0413_
*415 _0414_
*416 _0415_
*417 _0416_
*418 _0417_
*419 _0418_
*420 _0419_
*421 _0420_
*422 _0421_
*423 _0422_
*424 _0423_
*425 _0424_
*426 _0425_
*427 _0426_
*428 _0427_
*429 _0428_
*430 _0429_
*431 _0430_
*432 _0431_
*433 _0432_
*434 _0433_
*435 _0434_
*436 _0435_
*437 _0436_
*438 _0437_
*439 _0438_
*440 _0439_
*441 _0440_
*442 _0441_
*443 _0442_
*444 _0443_
*445 _0444_
*446 _0445_
*447 _0446_
*448 _0447_
*449 _0448_
*450 _0449_
*451 _0450_
*452 _0451_
*453 _0452_
*454 _0453_
*455 _0454_
*456 _0455_
*457 _0456_
*458 _0457_
*459 _0458_
*460 _0459_
*461 _0460_
*462 _0461_
*463 _0462_
*464 _0463_
*465 _0464_
*466 _0465_
*467 _0466_
*468 _0467_
*469 _0468_
*470 _0469_
*471 _0470_
*472 _0471_
*473 _0472_
*474 _0473_
*475 _0474_
*476 _0475_
*477 _0476_
*478 _0477_
*479 _0478_
*480 _0479_
*481 _0480_
*482 _0481_
*483 _0482_
*484 _0483_
*485 _0484_
*486 _0485_
*487 _0486_
*488 _0487_
*489 _0488_
*490 _0489_
*491 _0490_
*492 _0491_
*493 _0492_
*494 _0493_
*495 _0494_
*496 _0495_
*497 _0496_
*498 _0497_
*499 _0498_
*500 _0499_
*501 _0500_
*502 _0501_
*503 _0502_
*504 _0503_
*505 _0504_
*506 _0505_
*507 _0506_
*508 _0507_
*509 _0508_
*510 _0509_
*511 _0510_
*512 _0511_
*513 _0512_
*514 _0513_
*515 _0514_
*516 _0515_
*517 _0516_
*518 _0517_
*519 _0518_
*520 _0519_
*521 _0520_
*522 _0521_
*523 _0522_
*524 _0523_
*525 _0524_
*526 _0525_
*527 _0526_
*528 _0527_
*529 _0528_
*530 _0529_
*531 _0530_
*532 _0531_
*533 _0532_
*534 _0533_
*535 _0534_
*536 _0535_
*537 _0536_
*538 _0537_
*539 _0538_
*540 _0539_
*541 _0540_
*542 _0541_
*543 _0542_
*544 _0543_
*545 _0544_
*546 _0545_
*547 _0546_
*548 _0547_
*549 _0548_
*550 _0549_
*551 _0550_
*552 _0551_
*553 _0552_
*554 _0553_
*555 _0554_
*556 _0555_
*557 _0556_
*558 _0557_
*559 _0558_
*560 _0559_
*561 _0560_
*562 _0561_
*563 _0562_
*564 _0563_
*565 _0564_
*566 _0565_
*567 _0566_
*568 _0567_
*569 _0568_
*570 _0569_
*571 _0570_
*572 _0571_
*573 _0572_
*574 _0573_
*575 _0574_
*576 _0575_
*577 _0576_
*578 _0577_
*579 _0578_
*580 _0579_
*581 _0580_
*582 _0581_
*583 _0582_
*584 _0583_
*585 _0584_
*586 _0585_
*587 _0586_
*588 _0587_
*589 _0588_
*590 _0589_
*591 _0590_
*592 _0591_
*593 _0592_
*594 _0593_
*595 _0594_
*596 _0595_
*597 _0596_
*598 _0597_
*599 _0598_
*600 _0599_
*601 _0600_
*602 _0601_
*603 _0602_
*604 _0603_
*605 _0604_
*606 _0605_
*607 _0606_
*608 _0607_
*609 _0608_
*610 _0609_
*611 _0610_
*612 _0611_
*613 _0612_
*614 _0613_
*615 _0614_
*616 _0615_
*617 _0616_
*618 _0617_
*619 _0618_
*620 _0619_
*621 _0620_
*622 _0621_
*623 _0622_
*624 _0623_
*625 _0624_
*626 _0625_
*627 _0626_
*628 _0627_
*629 _0628_
*630 _0629_
*631 _0630_
*632 _0631_
*633 _0632_
*634 _0633_
*635 _0634_
*636 _0635_
*637 _0636_
*638 _0637_
*639 _0638_
*640 _0639_
*641 _0640_
*642 _0641_
*643 _0642_
*644 _0643_
*645 _0644_
*646 _0645_
*647 _0646_
*648 _0647_
*649 _0648_
*650 _0649_
*651 _0650_
*652 _0651_
*653 _0652_
*654 _0653_
*655 _0654_
*656 _0655_
*657 _0656_
*658 _0657_
*659 _0658_
*660 _0659_
*661 _0660_
*662 _0661_
*663 _0662_
*664 _0663_
*665 _0664_
*666 _0665_
*667 _0666_
*668 _0667_
*669 _0668_
*670 _0669_
*671 _0670_
*672 _0671_
*673 _0672_
*674 _0673_
*675 _0674_
*676 _0675_
*677 _0676_
*678 _0677_
*679 _0678_
*680 _0679_
*681 _0680_
*682 _0681_
*683 _0682_
*684 _0683_
*685 _0684_
*686 _0685_
*687 _0686_
*688 _0687_
*689 _0688_
*690 _0689_
*691 _0690_
*692 _0691_
*693 _0692_
*694 _0693_
*695 _0694_
*696 _0695_
*697 _0696_
*698 _0697_
*699 _0698_
*700 _0699_
*701 _0700_
*702 _0701_
*703 _0702_
*704 _0703_
*705 _0704_
*706 _0705_
*707 _0706_
*708 _0707_
*709 _0708_
*710 _0709_
*711 _0710_
*712 _0711_
*713 _0712_
*714 _0713_
*715 _0714_
*716 _0715_
*717 _0716_
*718 _0717_
*719 _0718_
*720 _0719_
*721 _0720_
*722 _0721_
*723 _0722_
*724 _0723_
*725 _0724_
*726 _0725_
*727 _0726_
*728 _0727_
*729 _0728_
*730 _0729_
*731 _0730_
*732 _0731_
*733 _0732_
*734 _0733_
*735 _0734_
*736 _0735_
*737 _0736_
*738 _0737_
*739 _0738_
*740 _0739_
*741 _0740_
*742 _0741_
*743 _0742_
*744 _0743_
*745 _0744_
*746 _0745_
*747 _0746_
*748 _0747_
*749 _0748_
*750 _0749_
*751 _0750_
*752 _0751_
*753 _0752_
*754 _0753_
*755 _0754_
*756 _0755_
*757 _0756_
*758 _0757_
*759 _0758_
*760 _0759_
*761 _0760_
*762 _0761_
*763 _0762_
*764 _0763_
*765 _0764_
*766 _0765_
*767 clknet_0_clk
*768 ce
*769 clk
*770 done
*771 l_i[0]
*772 l_i[10]
*773 l_i[11]
*774 l_i[12]
*775 l_i[13]
*776 l_i[14]
*777 l_i[15]
*778 l_i[16]
*779 l_i[17]
*780 l_i[18]
*781 l_i[19]
*782 l_i[1]
*783 l_i[20]
*784 l_i[21]
*785 l_i[22]
*786 l_i[23]
*787 l_i[24]
*788 l_i[25]
*789 l_i[26]
*790 l_i[27]
*791 l_i[28]
*792 l_i[29]
*793 l_i[2]
*794 l_i[30]
*795 l_i[31]
*796 l_i[32]
*797 l_i[33]
*798 l_i[34]
*799 l_i[35]
*800 l_i[3]
*801 l_i[4]
*802 l_i[5]
*803 l_i[6]
*804 l_i[7]
*805 l_i[8]
*806 l_i[9]
*807 net151
*808 l_i_v
*809 net152
*810 net153
*811 net154
*812 net155
*813 net156
*814 net157
*815 net158
*816 net159
*817 net160
*818 net161
*819 net162
*820 net163
*821 net164
*822 net165
*823 net166
*824 net167
*825 net168
*826 net169
*827 net170
*828 net171
*829 net172
*830 net173
*831 net174
*832 net175
*833 net176
*834 net177
*835 net178
*836 net179
*837 net180
*838 net181
*839 net182
*840 net183
*841 net184
*842 net185
*843 net186
*844 net187
*845 l_o_bp
*846 net188
*847 r_i[0]
*848 r_i[10]
*849 r_i[11]
*850 r_i[12]
*851 r_i[13]
*852 r_i[14]
*853 r_i[15]
*854 r_i[16]
*855 r_i[17]
*856 r_i[18]
*857 r_i[19]
*858 r_i[1]
*859 r_i[20]
*860 r_i[21]
*861 r_i[22]
*862 r_i[23]
*863 r_i[24]
*864 r_i[25]
*865 r_i[26]
*866 r_i[27]
*867 r_i[28]
*868 r_i[29]
*869 r_i[2]
*870 r_i[30]
*871 r_i[31]
*872 r_i[32]
*873 r_i[33]
*874 r_i[34]
*875 r_i[35]
*876 r_i[3]
*877 r_i[4]
*878 r_i[5]
*879 r_i[6]
*880 r_i[7]
*881 r_i[8]
*882 r_i[9]
*883 net189
*884 r_i_v
*885 net190
*886 net191
*887 net192
*888 net193
*889 net194
*890 net195
*891 net196
*892 net197
*893 net198
*894 net199
*895 net200
*896 net201
*897 net202
*898 net203
*899 net204
*900 net205
*901 net206
*902 net207
*903 net208
*904 net209
*905 net210
*906 net211
*907 net212
*908 net213
*909 net214
*910 net215
*911 net216
*912 net217
*913 net218
*914 net219
*915 net220
*916 net221
*917 net222
*918 net223
*919 net224
*920 net225
*921 r_o_bp
*922 net226
*923 rst
*924 u0_i[0]
*925 u0_i[10]
*926 u0_i[11]
*927 u0_i[12]
*928 u0_i[13]
*929 u0_i[14]
*930 u0_i[15]
*931 u0_i[16]
*932 u0_i[17]
*933 u0_i[18]
*934 u0_i[19]
*935 u0_i[1]
*936 u0_i[20]
*937 u0_i[21]
*938 u0_i[22]
*939 u0_i[23]
*940 u0_i[24]
*941 u0_i[25]
*942 u0_i[26]
*943 u0_i[27]
*944 u0_i[28]
*945 u0_i[29]
*946 u0_i[2]
*947 u0_i[30]
*948 u0_i[31]
*949 u0_i[32]
*950 u0_i[33]
*951 u0_i[34]
*952 u0_i[35]
*953 u0_i[3]
*954 u0_i[4]
*955 u0_i[5]
*956 u0_i[6]
*957 u0_i[7]
*958 u0_i[8]
*959 u0_i[9]
*960 net227
*961 u0_i_v
*962 net228
*963 net229
*964 net230
*965 net231
*966 net232
*967 net233
*968 net234
*969 net235
*970 net236
*971 net237
*972 net238
*973 net239
*974 net240
*975 net241
*976 net242
*977 net243
*978 net244
*979 net245
*980 net246
*981 net247
*982 net248
*983 net249
*984 net250
*985 net251
*986 net252
*987 net253
*988 net254
*989 net255
*990 net256
*991 net257
*992 net258
*993 net259
*994 net260
*995 net261
*996 net262
*997 net263
*998 u0_o_bp
*999 net264
*1000 u1_i[0]
*1001 u1_i[10]
*1002 u1_i[11]
*1003 u1_i[12]
*1004 u1_i[13]
*1005 u1_i[14]
*1006 u1_i[15]
*1007 u1_i[16]
*1008 u1_i[17]
*1009 u1_i[18]
*1010 u1_i[19]
*1011 u1_i[1]
*1012 u1_i[20]
*1013 u1_i[21]
*1014 u1_i[22]
*1015 u1_i[23]
*1016 u1_i[24]
*1017 u1_i[25]
*1018 u1_i[26]
*1019 u1_i[27]
*1020 u1_i[28]
*1021 u1_i[29]
*1022 u1_i[2]
*1023 u1_i[30]
*1024 u1_i[31]
*1025 u1_i[32]
*1026 u1_i[33]
*1027 u1_i[34]
*1028 u1_i[35]
*1029 u1_i[3]
*1030 u1_i[4]
*1031 u1_i[5]
*1032 u1_i[6]
*1033 u1_i[7]
*1034 u1_i[8]
*1035 u1_i[9]
*1036 net265
*1037 u1_i_v
*1038 net266
*1039 net267
*1040 net268
*1041 net269
*1042 net270
*1043 net271
*1044 net272
*1045 net273
*1046 net274
*1047 net275
*1048 net276
*1049 net277
*1050 net278
*1051 net279
*1052 net280
*1053 net281
*1054 net282
*1055 net283
*1056 net284
*1057 net285
*1058 net286
*1059 net287
*1060 net288
*1061 net289
*1062 net290
*1063 net291
*1064 net292
*1065 net293
*1066 net294
*1067 net295
*1068 net296
*1069 net297
*1070 net298
*1071 net299
*1072 net300
*1073 net301
*1074 u1_o_bp
*1075 net302
*1078 net1
*1079 net2
*1080 net3
*1081 net4
*1082 net5
*1083 net6
*1084 net7
*1085 net8
*1086 net9
*1087 net10
*1088 net11
*1089 net12
*1090 net13
*1091 net14
*1092 net15
*1093 net16
*1094 net17
*1095 net18
*1096 net19
*1097 net20
*1098 net21
*1099 net22
*1100 net23
*1101 net24
*1102 net25
*1103 net26
*1104 net27
*1105 net28
*1106 net29
*1107 net30
*1108 net31
*1109 net32
*1110 net33
*1111 net34
*1112 net35
*1113 net36
*1114 net37
*1115 net38
*1116 net39
*1117 net40
*1118 net41
*1119 net42
*1120 net43
*1121 net44
*1122 net45
*1123 net46
*1124 net47
*1125 net48
*1126 net49
*1127 net50
*1128 net51
*1129 net52
*1130 net53
*1131 net54
*1132 net55
*1133 net56
*1134 net57
*1135 net58
*1136 net59
*1137 net60
*1138 net61
*1139 net62
*1140 net63
*1141 net64
*1142 net65
*1143 net66
*1144 net67
*1145 net68
*1146 net69
*1147 net70
*1148 net71
*1149 net72
*1150 net73
*1151 net74
*1152 net75
*1153 net76
*1154 net77
*1155 net78
*1156 net79
*1157 net80
*1158 net81
*1159 net82
*1160 net83
*1161 net84
*1162 net85
*1163 net86
*1164 net87
*1165 net88
*1166 net89
*1167 net90
*1168 net91
*1169 net92
*1170 net93
*1171 net94
*1172 net95
*1173 net96
*1174 net97
*1175 net98
*1176 net99
*1177 net100
*1178 net101
*1179 net102
*1180 net103
*1181 net104
*1182 net105
*1183 net106
*1184 net107
*1185 net108
*1186 net109
*1187 net110
*1188 net111
*1189 net112
*1190 net113
*1191 net114
*1192 net115
*1193 net116
*1194 net117
*1195 net118
*1196 net119
*1197 net120
*1198 net121
*1199 net122
*1200 net123
*1201 net124
*1202 net125
*1203 net126
*1204 net127
*1205 net128
*1206 net129
*1207 net130
*1208 net131
*1209 net132
*1210 net133
*1211 net134
*1212 net135
*1213 net136
*1214 net137
*1215 net138
*1216 net139
*1217 net140
*1218 net141
*1219 net142
*1220 net143
*1221 net144
*1222 net145
*1223 net146
*1224 net147
*1225 net148
*1226 net149
*1227 net150
*1228 l_i_bp
*1229 l_o[0]
*1230 l_o[10]
*1231 l_o[11]
*1232 l_o[12]
*1233 l_o[13]
*1234 l_o[14]
*1235 l_o[15]
*1236 l_o[16]
*1237 l_o[17]
*1238 l_o[18]
*1239 l_o[19]
*1240 l_o[1]
*1241 l_o[20]
*1242 l_o[21]
*1243 l_o[22]
*1244 l_o[23]
*1245 l_o[24]
*1246 l_o[25]
*1247 l_o[26]
*1248 l_o[27]
*1249 l_o[28]
*1250 l_o[29]
*1251 l_o[2]
*1252 l_o[30]
*1253 l_o[31]
*1254 l_o[32]
*1255 l_o[33]
*1256 l_o[34]
*1257 l_o[35]
*1258 l_o[3]
*1259 l_o[4]
*1260 l_o[5]
*1261 l_o[6]
*1262 l_o[7]
*1263 l_o[8]
*1264 l_o[9]
*1265 l_o_v
*1266 r_i_bp
*1267 r_o[0]
*1268 r_o[10]
*1269 r_o[11]
*1270 r_o[12]
*1271 r_o[13]
*1272 r_o[14]
*1273 r_o[15]
*1274 r_o[16]
*1275 r_o[17]
*1276 r_o[18]
*1277 r_o[19]
*1278 r_o[1]
*1279 r_o[20]
*1280 r_o[21]
*1281 r_o[22]
*1282 r_o[23]
*1283 r_o[24]
*1284 r_o[25]
*1285 r_o[26]
*1286 r_o[27]
*1287 r_o[28]
*1288 r_o[29]
*1289 r_o[2]
*1290 r_o[30]
*1291 r_o[31]
*1292 r_o[32]
*1293 r_o[33]
*1294 r_o[34]
*1295 r_o[35]
*1296 r_o[3]
*1297 r_o[4]
*1298 r_o[5]
*1299 r_o[6]
*1300 r_o[7]
*1301 r_o[8]
*1302 r_o[9]
*1303 r_o_v
*1304 u0_i_bp
*1305 u0_o[0]
*1306 u0_o[10]
*1307 u0_o[11]
*1308 u0_o[12]
*1309 u0_o[13]
*1310 u0_o[14]
*1311 u0_o[15]
*1312 u0_o[16]
*1313 u0_o[17]
*1314 u0_o[18]
*1315 u0_o[19]
*1316 u0_o[1]
*1317 u0_o[20]
*1318 u0_o[21]
*1319 u0_o[22]
*1320 u0_o[23]
*1321 u0_o[24]
*1322 u0_o[25]
*1323 u0_o[26]
*1324 u0_o[27]
*1325 u0_o[28]
*1326 u0_o[29]
*1327 u0_o[2]
*1328 u0_o[30]
*1329 u0_o[31]
*1330 u0_o[32]
*1331 u0_o[33]
*1332 u0_o[34]
*1333 u0_o[35]
*1334 u0_o[3]
*1335 u0_o[4]
*1336 u0_o[5]
*1337 u0_o[6]
*1338 u0_o[7]
*1339 u0_o[8]
*1340 u0_o[9]
*1341 u0_o_v
*1342 u1_i_bp
*1343 u1_o[0]
*1344 u1_o[10]
*1345 u1_o[11]
*1346 u1_o[12]
*1347 u1_o[13]
*1348 u1_o[14]
*1349 u1_o[15]
*1350 u1_o[16]
*1351 u1_o[17]
*1352 u1_o[18]
*1353 u1_o[19]
*1354 u1_o[1]
*1355 u1_o[20]
*1356 u1_o[21]
*1357 u1_o[22]
*1358 u1_o[23]
*1359 u1_o[24]
*1360 u1_o[25]
*1361 u1_o[26]
*1362 u1_o[27]
*1363 u1_o[28]
*1364 u1_o[29]
*1365 u1_o[2]
*1366 u1_o[30]
*1367 u1_o[31]
*1368 u1_o[32]
*1369 u1_o[33]
*1370 u1_o[34]
*1371 u1_o[35]
*1372 u1_o[3]
*1373 u1_o[4]
*1374 u1_o[5]
*1375 u1_o[6]
*1376 u1_o[7]
*1377 u1_o[8]
*1378 u1_o[9]
*1379 u1_o_v
*1380 net303
*1381 clknet_4_0_0_clk
*1382 clknet_4_1_0_clk
*1383 clknet_4_2_0_clk
*1384 clknet_4_3_0_clk
*1385 clknet_4_4_0_clk
*1386 clknet_4_5_0_clk
*1387 clknet_4_6_0_clk
*1388 clknet_4_7_0_clk
*1389 clknet_4_8_0_clk
*1390 clknet_4_9_0_clk
*1391 clknet_4_10_0_clk
*1392 clknet_4_11_0_clk
*1393 clknet_4_12_0_clk
*1394 clknet_4_13_0_clk
*1395 clknet_4_14_0_clk
*1396 clknet_4_15_0_clk
*1397 _0767_
*1398 _0768_
*1399 _0769_
*1400 _0770_
*1401 _0771_
*1402 _0772_
*1403 _0773_
*1404 _0774_
*1405 _0775_
*1406 _0776_
*1407 _0777_
*1408 _0778_
*1409 _0779_
*1410 _0780_
*1411 _0781_
*1412 _0782_
*1413 _0783_
*1414 _0784_
*1415 _0785_
*1416 _0786_
*1417 _0787_
*1418 _0788_
*1419 _0789_
*1420 _0790_
*1421 _0791_
*1422 _0792_
*1423 _0793_
*1424 _0794_
*1425 _0795_
*1426 _0796_
*1427 _0797_
*1428 _0798_
*1429 _0799_
*1430 _0800_
*1431 _0801_
*1432 _0802_
*1433 _0803_
*1434 _0804_
*1435 _0805_
*1436 _0806_
*1437 _0807_
*1438 _0808_
*1439 _0809_
*1440 _0810_
*1441 _0811_
*1442 _0812_
*1443 _0813_
*1444 _0814_
*1445 _0815_
*1446 _0816_
*1447 _0817_
*1448 _0818_
*1449 _0819_
*1450 _0820_
*1451 _0821_
*1452 _0822_
*1453 _0823_
*1454 _0824_
*1455 _0825_
*1456 _0826_
*1457 _0827_
*1458 _0828_
*1459 _0829_
*1460 _0830_
*1461 _0831_
*1462 _0832_
*1463 _0833_
*1464 _0834_
*1465 _0835_
*1466 _0836_
*1467 _0837_
*1468 _0838_
*1469 _0839_
*1470 _0840_
*1471 _0841_
*1472 _0842_
*1473 _0843_
*1474 _0844_
*1475 _0845_
*1476 _0846_
*1477 _0847_
*1478 _0848_
*1479 _0849_
*1480 _0850_
*1481 _0851_
*1482 _0852_
*1483 _0853_
*1484 _0854_
*1485 _0855_
*1486 _0856_
*1487 _0857_
*1488 _0858_
*1489 _0859_
*1490 _0860_
*1491 _0861_
*1492 _0862_
*1493 _0863_
*1494 _0864_
*1495 _0865_
*1496 _0866_
*1497 _0867_
*1498 _0868_
*1499 _0869_
*1500 _0870_
*1501 _0871_
*1502 _0872_
*1503 _0873_
*1504 _0874_
*1505 _0875_
*1506 _0876_
*1507 _0877_
*1508 _0878_
*1509 _0879_
*1510 _0880_
*1511 _0881_
*1512 _0882_
*1513 _0883_
*1514 _0884_
*1515 _0885_
*1516 _0886_
*1517 _0887_
*1518 _0888_
*1519 _0889_
*1520 _0890_
*1521 _0891_
*1522 _0892_
*1523 _0893_
*1524 _0894_
*1525 _0895_
*1526 _0896_
*1527 _0897_
*1528 _0898_
*1529 _0899_
*1530 _0900_
*1531 _0901_
*1532 _0902_
*1533 _0903_
*1534 _0904_
*1535 _0905_
*1536 _0906_
*1537 _0907_
*1538 _0908_
*1539 _0909_
*1540 _0910_
*1541 _0911_
*1542 _0912_
*1543 _0913_
*1544 _0914_
*1545 _0915_
*1546 _0916_
*1547 _0917_
*1548 _0918_
*1549 _0919_
*1550 _0920_
*1551 _0921_
*1552 _0922_
*1553 _0923_
*1554 _0924_
*1555 _0925_
*1556 _0926_
*1557 _0927_
*1558 _0928_
*1559 _0929_
*1560 _0930_
*1561 _0931_
*1562 _0932_
*1563 _0933_
*1564 _0934_
*1565 _0935_
*1566 _0936_
*1567 _0937_
*1568 _0938_
*1569 _0939_
*1570 _0940_
*1571 _0941_
*1572 _0942_
*1573 _0943_
*1574 _0944_
*1575 _0945_
*1576 _0946_
*1577 _0947_
*1578 _0948_
*1579 _0949_
*1580 _0950_
*1581 _0951_
*1582 _0952_
*1583 _0953_
*1584 _0954_
*1585 _0955_
*1586 _0956_
*1587 _0957_
*1588 _0958_
*1589 _0959_
*1590 _0960_
*1591 _0961_
*1592 _0962_
*1593 _0963_
*1594 _0964_
*1595 _0965_
*1596 _0966_
*1597 _0967_
*1598 _0968_
*1599 _0969_
*1600 _0970_
*1601 _0971_
*1602 _0972_
*1603 _0973_
*1604 _0974_
*1605 _0975_
*1606 _0976_
*1607 _0977_
*1608 _0978_
*1609 _0979_
*1610 _0980_
*1611 _0981_
*1612 _0982_
*1613 _0983_
*1614 _0984_
*1615 _0985_
*1616 _0986_
*1617 _0987_
*1618 _0988_
*1619 _0989_
*1620 _0990_
*1621 _0991_
*1622 _0992_
*1623 _0993_
*1624 _0994_
*1625 _0995_
*1626 _0996_
*1627 _0997_
*1628 _0998_
*1629 _0999_
*1630 _1000_
*1631 _1001_
*1632 _1002_
*1633 _1003_
*1634 _1004_
*1635 _1005_
*1636 _1006_
*1637 _1007_
*1638 _1008_
*1639 _1009_
*1640 _1010_
*1641 _1011_
*1642 _1012_
*1643 _1013_
*1644 _1014_
*1645 _1015_
*1646 _1016_
*1647 _1017_
*1648 _1018_
*1649 _1019_
*1650 _1020_
*1651 _1021_
*1652 _1022_
*1653 _1023_
*1654 _1024_
*1655 _1025_
*1656 _1026_
*1657 _1027_
*1658 _1028_
*1659 _1029_
*1660 _1030_
*1661 _1031_
*1662 _1032_
*1663 _1033_
*1664 _1034_
*1665 _1035_
*1666 _1036_
*1667 _1037_
*1668 _1038_
*1669 _1039_
*1670 _1040_
*1671 _1041_
*1672 _1042_
*1673 _1043_
*1674 _1044_
*1675 _1045_
*1676 _1046_
*1677 _1047_
*1678 _1048_
*1679 _1049_
*1680 _1050_
*1681 _1051_
*1682 _1052_
*1683 _1053_
*1684 _1054_
*1685 _1055_
*1686 _1056_
*1687 _1057_
*1688 _1058_
*1689 _1059_
*1690 _1060_
*1691 _1061_
*1692 _1062_
*1693 _1063_
*1694 _1064_
*1695 _1065_
*1696 _1066_
*1697 _1067_
*1698 _1068_
*1699 _1069_
*1700 _1070_
*1701 _1071_
*1702 _1072_
*1703 _1073_
*1704 _1074_
*1705 _1075_
*1706 _1076_
*1707 _1077_
*1708 _1078_
*1709 _1079_
*1710 _1080_
*1711 _1081_
*1712 _1082_
*1713 _1083_
*1714 _1084_
*1715 _1085_
*1716 _1086_
*1717 _1087_
*1718 _1088_
*1719 _1089_
*1720 _1090_
*1721 _1091_
*1722 _1092_
*1723 _1093_
*1724 _1094_
*1725 _1095_
*1726 _1096_
*1727 _1097_
*1728 _1098_
*1729 _1099_
*1730 _1100_
*1731 _1101_
*1732 _1102_
*1733 _1103_
*1734 _1104_
*1735 _1105_
*1736 _1106_
*1737 _1107_
*1738 _1108_
*1739 _1109_
*1740 _1110_
*1741 _1111_
*1742 _1112_
*1743 _1113_
*1744 _1114_
*1745 _1115_
*1746 _1116_
*1747 _1117_
*1748 _1118_
*1749 _1119_
*1750 _1120_
*1751 _1121_
*1752 _1122_
*1753 _1123_
*1754 _1124_
*1755 _1125_
*1756 _1126_
*1757 _1127_
*1758 _1128_
*1759 _1129_
*1760 _1130_
*1761 _1131_
*1762 _1132_
*1763 _1133_
*1764 _1134_
*1765 _1135_
*1766 _1136_
*1767 _1137_
*1768 _1138_
*1769 _1139_
*1770 _1140_
*1771 _1141_
*1772 _1142_
*1773 _1143_
*1774 _1144_
*1775 _1145_
*1776 _1146_
*1777 _1147_
*1778 _1148_
*1779 _1149_
*1780 _1150_
*1781 _1151_
*1782 _1152_
*1783 _1153_
*1784 _1154_
*1785 _1155_
*1786 _1156_
*1787 _1157_
*1788 _1158_
*1789 _1159_
*1790 _1160_
*1791 _1161_
*1792 _1162_
*1793 _1163_
*1794 _1164_
*1795 _1165_
*1796 _1166_
*1797 _1167_
*1798 _1168_
*1799 _1169_
*1800 _1170_
*1801 _1171_
*1802 _1172_
*1803 _1173_
*1804 _1174_
*1805 _1175_
*1806 _1176_
*1807 _1177_
*1808 _1178_
*1809 _1179_
*1810 _1180_
*1811 _1181_
*1812 _1182_
*1813 _1183_
*1814 _1184_
*1815 _1185_
*1816 _1186_
*1817 _1187_
*1818 _1188_
*1819 _1189_
*1820 _1190_
*1821 _1191_
*1822 _1192_
*1823 _1193_
*1824 _1194_
*1825 _1195_
*1826 _1196_
*1827 _1197_
*1828 _1198_
*1829 _1199_
*1830 _1200_
*1831 _1201_
*1832 _1202_
*1833 _1203_
*1834 _1204_
*1835 _1205_
*1836 _1206_
*1837 _1207_
*1838 _1208_
*1839 _1209_
*1840 _1210_
*1841 _1211_
*1842 _1212_
*1843 _1213_
*1844 _1214_
*1845 _1215_
*1846 _1216_
*1847 _1217_
*1848 _1218_
*1849 _1219_
*1850 _1220_
*1851 _1221_
*1852 _1222_
*1853 _1223_
*1854 _1224_
*1855 _1225_
*1856 _1226_
*1857 _1227_
*1858 _1228_
*1859 _1229_
*1860 _1230_
*1861 _1231_
*1862 _1232_
*1863 _1233_
*1864 _1234_
*1865 _1235_
*1866 _1236_
*1867 _1237_
*1868 _1238_
*1869 _1239_
*1870 _1240_
*1871 _1241_
*1872 _1242_
*1873 _1243_
*1874 _1244_
*1875 _1245_
*1876 _1246_
*1877 _1247_
*1878 _1248_
*1879 _1249_
*1880 _1250_
*1881 _1251_
*1882 _1252_
*1883 _1253_
*1884 _1254_
*1885 _1255_
*1886 _1256_
*1887 _1257_
*1888 _1258_
*1889 _1259_
*1890 _1260_
*1891 _1261_
*1892 _1262_
*1893 _1263_
*1894 _1264_
*1895 _1265_
*1896 _1266_
*1897 _1267_
*1898 _1268_
*1899 _1269_
*1900 _1270_
*1901 _1271_
*1902 _1272_
*1903 _1273_
*1904 _1274_
*1905 _1275_
*1906 _1276_
*1907 _1277_
*1908 _1278_
*1909 _1279_
*1910 _1280_
*1911 _1281_
*1912 _1282_
*1913 _1283_
*1914 _1284_
*1915 _1285_
*1916 _1286_
*1917 _1287_
*1918 _1288_
*1919 _1289_
*1920 _1290_
*1921 _1291_
*1922 _1292_
*1923 _1293_
*1924 _1294_
*1925 _1295_
*1926 _1296_
*1927 _1297_
*1928 _1298_
*1929 _1299_
*1930 _1300_
*1931 _1301_
*1932 _1302_
*1933 _1303_
*1934 _1304_
*1935 _1305_
*1936 _1306_
*1937 _1307_
*1938 _1308_
*1939 _1309_
*1940 _1310_
*1941 _1311_
*1942 _1312_
*1943 _1313_
*1944 _1314_
*1945 _1315_
*1946 _1316_
*1947 _1317_
*1948 _1318_
*1949 _1319_
*1950 _1320_
*1951 _1321_
*1952 _1322_
*1953 _1323_
*1954 _1324_
*1955 _1325_
*1956 _1326_
*1957 _1327_
*1958 _1328_
*1959 _1329_
*1960 _1330_
*1961 _1331_
*1962 _1332_
*1963 _1333_
*1964 _1334_
*1965 _1335_
*1966 _1336_
*1967 _1337_
*1968 _1338_
*1969 _1339_
*1970 _1340_
*1971 _1341_
*1972 _1342_
*1973 _1343_
*1974 _1344_
*1975 _1345_
*1976 _1346_
*1977 _1347_
*1978 _1348_
*1979 _1349_
*1980 _1350_
*1981 _1351_
*1982 _1352_
*1983 _1353_
*1984 _1354_
*1985 _1355_
*1986 _1356_
*1987 _1357_
*1988 _1358_
*1989 _1359_
*1990 _1360_
*1991 _1361_
*1992 _1362_
*1993 _1363_
*1994 _1364_
*1995 _1365_
*1996 _1366_
*1997 _1367_
*1998 _1368_
*1999 _1369_
*2000 _1370_
*2001 _1371_
*2002 _1372_
*2003 _1373_
*2004 _1374_
*2005 _1375_
*2006 _1376_
*2007 _1377_
*2008 _1378_
*2009 _1379_
*2010 _1380_
*2011 _1381_
*2012 _1382_
*2013 _1383_
*2014 _1384_
*2015 _1385_
*2016 _1386_
*2017 _1387_
*2018 _1388_
*2019 _1389_
*2020 _1390_
*2021 _1391_
*2022 _1392_
*2023 _1393_
*2024 _1394_
*2025 _1395_
*2026 _1396_
*2027 _1397_
*2028 _1398_
*2029 _1399_
*2030 _1400_
*2031 _1401_
*2032 _1402_
*2033 _1403_
*2034 _1404_
*2035 _1405_
*2036 _1406_
*2037 _1407_
*2038 _1408_
*2039 _1409_
*2040 _1410_
*2041 _1411_
*2042 _1412_
*2043 _1413_
*2044 _1414_
*2045 _1415_
*2046 _1416_
*2047 _1417_
*2048 _1418_
*2049 _1419_
*2050 _1420_
*2051 _1421_
*2052 _1422_
*2053 _1423_
*2054 _1424_
*2055 _1425_
*2056 _1426_
*2057 _1427_
*2058 _1428_
*2059 _1429_
*2060 _1430_
*2061 _1431_
*2062 _1432_
*2063 _1433_
*2064 _1434_
*2065 _1435_
*2066 _1436_
*2067 _1437_
*2068 _1438_
*2069 _1439_
*2070 _1440_
*2071 _1441_
*2072 _1442_
*2073 _1443_
*2074 _1444_
*2075 _1445_
*2076 _1446_
*2077 _1447_
*2078 _1448_
*2079 _1449_
*2080 _1450_
*2081 _1451_
*2082 _1452_
*2083 _1453_
*2084 _1454_
*2085 _1455_
*2086 _1456_
*2087 _1457_
*2088 _1458_
*2089 _1459_
*2090 _1460_
*2091 _1461_
*2092 _1462_
*2093 _1463_
*2094 _1464_
*2095 _1465_
*2096 _1466_
*2097 _1467_
*2098 _1468_
*2099 _1469_
*2100 _1470_
*2101 _1471_
*2102 _1472_
*2103 _1473_
*2104 _1474_
*2105 _1475_
*2106 _1476_
*2107 _1477_
*2108 _1478_
*2109 _1479_
*2110 _1480_
*2111 _1481_
*2112 _1482_
*2113 _1483_
*2114 _1484_
*2115 _1485_
*2116 _1486_
*2117 _1487_
*2118 _1488_
*2119 _1489_
*2120 _1490_
*2121 _1491_
*2122 _1492_
*2123 _1493_
*2124 _1494_
*2125 _1495_
*2126 _1496_
*2127 _1497_
*2128 _1498_
*2129 _1499_
*2130 _1500_
*2131 _1501_
*2132 _1502_
*2133 _1503_
*2134 _1504_
*2135 _1505_
*2136 _1506_
*2137 _1507_
*2138 _1508_
*2139 _1509_
*2140 _1510_
*2141 _1511_
*2142 _1512_
*2143 _1513_
*2144 _1514_
*2145 _1515_
*2146 _1516_
*2147 _1517_
*2148 _1518_
*2149 _1519_
*2150 _1520_
*2151 _1521_
*2152 _1522_
*2153 _1523_
*2154 _1524_
*2155 _1525_
*2156 _1526_
*2157 _1527_
*2158 _1528_
*2159 _1529_
*2160 _1530_
*2161 _1531_
*2162 _1532_
*2163 clkbuf_0_clk
*2164 _1534_
*2165 l_o_r\[0\]\$_SDFFE_PP0N_
*2166 l_o_r\[10\]\$_SDFFE_PP0N_
*2167 l_o_r\[11\]\$_SDFFE_PP0N_
*2168 l_o_r\[12\]\$_SDFFE_PP0N_
*2169 l_o_r\[13\]\$_SDFFE_PP0N_
*2170 l_o_r\[14\]\$_SDFFE_PP0N_
*2171 l_o_r\[15\]\$_SDFFE_PP0N_
*2172 l_o_r\[16\]\$_SDFFE_PP0N_
*2173 l_o_r\[17\]\$_SDFFE_PP0N_
*2174 l_o_r\[18\]\$_SDFFE_PP0N_
*2175 l_o_r\[19\]\$_SDFFE_PP0N_
*2176 l_o_r\[1\]\$_SDFFE_PP0N_
*2177 l_o_r\[20\]\$_SDFFE_PP0N_
*2178 l_o_r\[21\]\$_SDFFE_PP0N_
*2179 l_o_r\[22\]\$_SDFFE_PP0N_
*2180 l_o_r\[23\]\$_SDFFE_PP0N_
*2181 l_o_r\[24\]\$_SDFFE_PP0N_
*2182 l_o_r\[25\]\$_SDFFE_PP0N_
*2183 l_o_r\[26\]\$_SDFFE_PP0N_
*2184 l_o_r\[27\]\$_SDFFE_PP0N_
*2185 l_o_r\[28\]\$_SDFFE_PP0N_
*2186 l_o_r\[29\]\$_SDFFE_PP0N_
*2187 l_o_r\[2\]\$_SDFFE_PP0N_
*2188 l_o_r\[30\]\$_SDFFE_PP0N_
*2189 l_o_r\[31\]\$_SDFFE_PP0N_
*2190 l_o_r\[32\]\$_SDFFE_PP0N_
*2191 l_o_r\[33\]\$_SDFFE_PP0N_
*2192 l_o_r\[34\]\$_SDFFE_PP0N_
*2193 l_o_r\[35\]\$_SDFFE_PP0N_
*2194 l_o_r\[3\]\$_SDFFE_PP0N_
*2195 l_o_r\[4\]\$_SDFFE_PP0N_
*2196 l_o_r\[5\]\$_SDFFE_PP0N_
*2197 l_o_r\[6\]\$_SDFFE_PP0N_
*2198 l_o_r\[7\]\$_SDFFE_PP0N_
*2199 l_o_r\[8\]\$_SDFFE_PP0N_
*2200 l_o_r\[9\]\$_SDFFE_PP0N_
*2201 l_o_v_r\$_SDFFE_PP0N_
*2202 r\.rr\[0\]\$_DFF_P_
*2203 r\.rr\[1\]\$_DFF_P_
*2204 r\.rr\[2\]\$_DFF_P_
*2205 r\.rr\[3\]\$_DFF_P_
*2206 r_o_r\[0\]\$_SDFFE_PP0N_
*2207 r_o_r\[10\]\$_SDFFE_PP0N_
*2208 r_o_r\[11\]\$_SDFFE_PP0N_
*2209 r_o_r\[12\]\$_SDFFE_PP0N_
*2210 r_o_r\[13\]\$_SDFFE_PP0N_
*2211 r_o_r\[14\]\$_SDFFE_PP0N_
*2212 r_o_r\[15\]\$_SDFFE_PP0N_
*2213 r_o_r\[16\]\$_SDFFE_PP0N_
*2214 r_o_r\[17\]\$_SDFFE_PP0N_
*2215 r_o_r\[18\]\$_SDFFE_PP0N_
*2216 r_o_r\[19\]\$_SDFFE_PP0N_
*2217 r_o_r\[1\]\$_SDFFE_PP0N_
*2218 r_o_r\[20\]\$_SDFFE_PP0N_
*2219 r_o_r\[21\]\$_SDFFE_PP0N_
*2220 r_o_r\[22\]\$_SDFFE_PP0N_
*2221 r_o_r\[23\]\$_SDFFE_PP0N_
*2222 r_o_r\[24\]\$_SDFFE_PP0N_
*2223 r_o_r\[25\]\$_SDFFE_PP0N_
*2224 r_o_r\[26\]\$_SDFFE_PP0N_
*2225 r_o_r\[27\]\$_SDFFE_PP0N_
*2226 r_o_r\[28\]\$_SDFFE_PP0N_
*2227 r_o_r\[29\]\$_SDFFE_PP0N_
*2228 r_o_r\[2\]\$_SDFFE_PP0N_
*2229 r_o_r\[30\]\$_SDFFE_PP0N_
*2230 r_o_r\[31\]\$_SDFFE_PP0N_
*2231 r_o_r\[32\]\$_SDFFE_PP0N_
*2232 r_o_r\[33\]\$_SDFFE_PP0N_
*2233 r_o_r\[34\]\$_SDFFE_PP0N_
*2234 r_o_r\[35\]\$_SDFFE_PP0N_
*2235 r_o_r\[3\]\$_SDFFE_PP0N_
*2236 r_o_r\[4\]\$_SDFFE_PP0N_