*SPEF "ieee 1481-1999"
*DESIGN "credit_t_switch"
*DATE "15:00:09 Monday July 07, 2025"
*VENDOR "The OpenROAD Project"
*PROGRAM "OpenROAD"
*VERSION "v2.0-21872-gd51df1dea5"
*DESIGN_FLOW "NAME_SCOPE LOCAL" "PIN_CAP NONE"
*DIVIDER /
*DELIMITER :
*BUS_DELIMITER []
*T_UNIT 1 NS
*C_UNIT 1 PF
*R_UNIT 1 OHM
*L_UNIT 1 HENRY

*NAME_MAP
*1 _0000_
*2 _0001_
*3 _0002_
*4 _0003_
*5 _0004_
*6 _0005_
*7 _0006_
*8 _0007_
*9 _0008_
*10 _0009_
*11 _0010_
*12 _0011_
*13 _0012_
*14 _0013_
*15 _0014_
*16 _0015_
*17 _0016_
*18 _0017_
*19 _0018_
*20 _0019_
*21 _0020_
*22 _0021_
*23 _0022_
*24 _0023_
*25 _0024_
*26 _0025_
*27 _0026_
*28 _0027_
*29 _0028_
*30 _0029_
*31 _0030_
*32 _0031_
*33 _0032_
*34 _0033_
*35 _0034_
*36 _0035_
*37 _0036_
*38 _0037_
*39 _0038_
*40 _0039_
*41 _0040_
*42 _0041_
*43 _0042_
*44 _0043_
*45 _0044_
*46 _0045_
*47 _0046_
*48 _0047_
*49 _0048_
*50 _0049_
*51 _0050_
*52 _0051_
*53 _0052_
*54 _0053_
*55 _0054_
*56 _0055_
*57 _0056_
*58 _0057_
*59 _0058_
*60 _0059_
*61 _0060_
*62 _0061_
*63 _0062_
*64 _0063_
*65 _0064_
*66 _0065_
*67 _0066_
*68 _0067_
*69 _0068_
*70 _0069_
*71 _0070_
*72 _0071_
*73 _0072_
*74 _0073_
*75 _0074_
*76 _0075_
*77 _0076_
*78 _0077_
*79 _0078_
*80 _0079_
*81 _0080_
*82 _0081_
*83 _0082_
*84 _0083_
*85 _0084_
*86 _0085_
*87 _0086_
*88 _0087_
*89 _0088_
*90 _0089_
*91 _0090_
*92 _0091_
*93 _0092_
*94 _0093_
*95 _0094_
*96 _0095_
*97 _0096_
*98 _0097_
*99 _0098_
*100 _0099_
*101 _0100_
*102 _0101_
*103 _0102_
*104 _0103_
*105 _0104_
*106 _0105_
*107 _0106_
*108 _0107_
*109 _0108_
*110 _0109_
*111 _0110_
*112 _0111_
*113 _0112_
*114 _0113_
*115 _0114_
*116 _0115_
*117 _0116_
*118 _0117_
*119 _0118_
*120 _0119_
*121 _0120_
*122 _0121_
*123 _0122_
*124 _0123_
*125 _0124_
*126 _0125_
*127 _0126_
*128 _0127_
*129 _0128_
*130 _0129_
*131 _0130_
*132 _0131_
*133 _0132_
*134 _0133_
*135 _0134_
*136 _0135_
*137 _0136_
*138 _0137_
*139 _0138_
*140 _0139_
*141 _0140_
*142 _0141_
*143 _0142_
*144 _0143_
*145 _0144_
*146 _0145_
*147 _0146_
*148 _0147_
*149 _0148_
*150 _0149_
*151 _0150_
*152 _0151_
*153 _0152_
*154 _0153_
*155 _0154_
*156 _0155_
*157 _0156_
*158 _0157_
*159 _0158_
*160 _0159_
*161 _0160_
*162 _0161_
*163 _0162_
*164 _0163_
*165 _0164_
*166 _0165_
*167 _0166_
*168 _0167_
*169 _0168_
*170 _0169_
*171 _0170_
*172 _0171_
*173 _0172_
*174 _0173_
*175 _0174_
*176 _0175_
*177 _0176_
*178 _0177_
*179 _0178_
*180 _0179_
*181 _0180_
*182 _0181_
*183 _0182_
*184 _0183_
*185 _0184_
*186 _0185_
*187 _0186_
*188 _0187_
*189 _0188_
*190 _0189_
*191 _0190_
*192 _0191_
*193 _0192_
*194 _0193_
*195 _0194_
*196 _0195_
*197 _0196_
*198 _0197_
*199 _0198_
*200 _0199_
*201 _0200_
*202 _0201_
*203 _0202_
*204 _0203_
*205 _0204_
*206 _0205_
*207 _0206_
*208 _0207_
*209 _0208_
*210 _0209_
*211 _0210_
*212 _0211_
*213 _0212_
*214 _0213_
*215 _0214_
*216 _0215_
*217 _0216_
*218 _0217_
*219 _0218_
*220 _0219_
*221 _0220_
*222 _0221_
*223 _0222_
*224 _0223_
*225 _0224_
*226 _0225_
*227 _0226_
*228 _0227_
*229 _0228_
*230 _0229_
*231 _0230_
*232 _0231_
*233 _0232_
*234 _0233_
*235 _0234_
*236 _0235_
*237 _0236_
*238 _0237_
*239 _0238_
*240 _0239_
*241 _0240_
*242 _0241_
*243 _0242_
*244 _0243_
*245 _0244_
*246 _0245_
*247 _0246_
*248 _0247_
*249 _0248_
*250 _0249_
*251 _0250_
*252 _0251_
*253 _0252_
*254 _0253_
*255 _0254_
*256 _0255_
*257 _0256_
*258 _0257_
*259 _0258_
*260 _0259_
*261 _0260_
*262 _0261_
*263 _0262_
*264 _0263_
*265 _0264_
*266 _0265_
*267 _0266_
*268 _0267_
*269 _0268_
*270 _0269_
*271 _0270_
*272 _0271_
*273 _0272_
*274 _0273_
*275 _0274_
*276 _0275_
*277 _0276_
*278 _0277_
*279 _0278_
*280 _0279_
*281 _0280_
*282 _0281_
*283 _0282_
*284 _0283_
*285 _0284_
*286 _0285_
*287 _0286_
*288 _0287_
*289 _0288_
*290 _0289_
*291 _0290_
*292 _0291_
*293 _0292_
*294 _0293_
*295 _0294_
*296 _0295_
*297 _0296_
*298 _0297_
*299 _0298_
*300 _0299_
*301 _0300_
*302 _0301_
*303 _0302_
*304 _0303_
*305 _0304_
*306 _0305_
*307 _0306_
*308 _0307_
*309 _0308_
*310 _0309_
*311 _0310_
*312 _0311_
*313 _0312_
*314 _0313_
*315 _0314_
*316 _0315_
*317 _0316_
*318 _0317_
*319 _0318_
*320 _0319_
*321 _0320_
*322 _0321_
*323 _0322_
*324 _0323_
*325 _0324_
*326 _0325_
*327 _0326_
*328 _0327_
*329 _0328_
*330 _0329_
*331 _0330_
*332 _0331_
*333 _0332_
*334 _0333_
*335 _0334_
*336 _0335_
*337 _0336_
*338 _0337_
*339 _0338_
*340 _0339_
*341 _0340_
*342 _0341_
*343 _0342_
*344 _0343_
*345 _0344_
*346 _0345_
*347 _0346_
*348 _0347_
*349 _0348_
*350 _0349_
*351 _0350_
*352 _0351_
*353 _0352_
*354 _0353_
*355 _0354_
*356 _0355_
*357 _0356_
*358 _0357_
*359 _0358_
*360 _0359_
*361 _0360_
*362 _0361_
*363 _0362_
*364 _0363_
*365 _0364_
*366 _0365_
*367 _0366_
*368 _0367_
*369 _0368_
*370 _0369_
*371 _0370_
*372 _0371_
*373 _0372_
*374 _0373_
*375 _0374_
*376 _0375_
*377 _0376_
*378 _0377_
*379 _0378_
*380 _0379_
*381 _0380_
*382 _0381_
*383 _0382_
*384 _0383_
*385 _0384_
*386 _0385_
*387 _0386_
*388 _0387_
*389 _0388_
*390 _0389_
*391 _0390_
*392 _0391_
*393 _0392_
*394 _0393_
*395 _0394_
*396 _0395_
*397 _0396_
*398 _0397_
*399 _0398_
*400 _0399_
*401 _0400_
*402 _0401_
*403 _0402_
*404 _0403_
*405 _0404_
*406 _0405_
*407 _0406_
*408 _0407_
*409 _0408_
*410 _0409_
*411 _0410_
*412 _0411_
*413 _0412_
*414 _0413_
*415 _0414_
*416 _0415_
*417 _0416_
*418 _0417_
*419 _0418_
*420 _0419_
*421 _0420_
*422 _0421_
*423 _0422_
*424 _0423_
*425 _0424_
*426 _0425_
*427 _0426_
*428 _0427_
*429 _0428_
*430 _0429_
*431 _0430_
*432 _0431_
*433 _0432_
*434 _0433_
*435 _0434_
*436 _0435_
*437 _0436_
*438 _0437_
*439 _0438_
*440 _0439_
*441 _0440_
*442 _0441_
*443 _0442_
*444 _0443_
*445 _0444_
*446 _0445_
*447 _0446_
*448 _0447_
*449 _0448_
*450 _0449_
*451 _0450_
*452 _0451_
*453 _0452_
*454 _0453_
*455 _0454_
*456 _0455_
*457 _0456_
*458 _0457_
*459 _0458_
*460 _0459_
*461 _0460_
*462 _0461_
*463 _0462_
*464 _0463_
*465 _0464_
*466 _0465_
*467 _0466_
*468 _0467_
*469 _0468_
*470 _0469_
*471 _0470_
*472 _0471_
*473 _0472_
*474 _0473_
*475 _0474_
*476 _0475_
*477 _0476_
*478 _0477_
*479 _0478_
*480 _0479_
*481 _0480_
*482 _0481_
*483 _0482_
*484 _0483_
*485 _0484_
*486 _0485_
*487 _0486_
*488 _0487_
*489 _0488_
*490 _0489_
*491 _0490_
*492 _0491_
*493 _0492_
*494 _0493_
*495 _0494_
*496 _0495_
*497 _0496_
*498 _0497_
*499 _0498_
*500 _0499_
*501 _0500_
*502 _0501_
*503 _0502_
*504 _0503_
*505 _0504_
*506 _0505_
*507 _0506_
*508 _0507_
*509 _0508_
*510 _0509_
*511 _0510_
*512 _0511_
*513 _0512_
*514 _0513_
*515 _0514_
*516 _0515_
*517 _0516_
*518 _0517_
*519 _0518_
*520 _0519_
*521 _0520_
*522 _0521_
*523 _0522_
*524 _0523_
*525 _0524_
*526 _0525_
*527 _0526_
*528 _0527_
*529 _0528_
*530 _0529_
*531 _0530_
*532 _0531_
*533 _0532_
*534 _0533_
*535 _0534_
*536 _0535_
*537 _0536_
*538 _0537_
*539 _0538_
*540 _0539_
*541 _0540_
*542 _0541_
*543 _0542_
*544 _0543_
*545 _0544_
*546 _0545_
*547 _0546_
*548 _0547_
*549 _0548_
*550 _0549_
*551 _0550_
*552 _0551_
*553 _0552_
*554 _0553_
*555 _0554_
*556 _0555_
*557 _0556_
*558 _0557_
*559 _0558_
*560 _0559_
*561 _0560_
*562 _0561_
*563 _0562_
*564 _0563_
*565 _0564_
*566 _0565_
*567 _0566_
*568 _0567_
*569 _0568_
*570 _0569_
*571 _0570_
*572 _0571_
*573 _0572_
*574 _0573_
*575 _0574_
*576 _0575_
*577 _0576_
*578 _0577_
*579 _0578_
*580 _0579_
*581 _0580_
*582 _0581_
*583 _0582_
*584 _0583_
*585 _0584_
*586 _0585_
*587 _0586_
*588 _0587_
*589 _0588_
*590 _0589_
*591 _0590_
*592 _0591_
*593 _0592_
*594 _0593_
*595 _0594_
*596 _0595_
*597 _0596_
*598 _0597_
*599 _0598_
*600 _0599_
*601 _0600_
*602 _0601_
*603 _0602_
*604 _0603_
*605 _0604_
*606 _0605_
*607 _0606_
*608 _0607_
*609 _0608_
*610 _0609_
*611 _0610_
*612 _0611_
*613 _0612_
*614 _0613_
*615 _0614_
*616 _0615_
*617 _0616_
*618 _0617_
*619 _0618_
*620 _0619_
*621 _0620_
*622 _0621_
*623 _0622_
*624 _0623_
*625 _0624_
*626 _0625_
*627 _0626_
*628 _0627_
*629 _0628_
*630 _0629_
*631 _0630_
*632 _0631_
*633 _0632_
*634 _0633_
*635 _0634_
*636 _0635_
*637 _0636_
*638 _0637_
*639 _0638_
*640 _0639_
*641 _0640_
*642 _0641_
*643 _0642_
*644 _0643_
*645 _0644_
*646 _0645_
*647 _0646_
*648 _0647_
*649 _0648_
*650 _0649_
*651 _0650_
*652 _0651_
*653 _0652_
*654 _0653_
*655 _0654_
*656 _0655_
*657 _0656_
*658 _0657_
*659 _0658_
*660 _0659_
*661 _0660_
*662 _0661_
*663 _0662_
*664 _0663_
*665 _0664_
*666 _0665_
*667 _0666_
*668 _0667_
*669 _0668_
*670 _0669_
*671 _0670_
*672 _0671_
*673 _0672_
*674 _0673_
*675 _0674_
*676 _0675_
*677 _0676_
*678 _0677_
*679 _0678_
*680 _0679_
*681 _0680_
*682 _0681_
*683 _0682_
*684 _0683_
*685 _0684_
*686 _0685_
*687 _0686_
*688 _0687_
*689 _0688_
*690 _0689_
*691 _0690_
*692 _0691_
*693 _0692_
*694 _0693_
*695 _0694_
*696 _0695_
*697 _0696_
*698 _0697_
*699 _0698_
*700 _0699_
*701 _0700_
*702 _0701_
*703 _0702_
*704 _0703_
*705 _0704_
*706 _0705_
*707 _0706_
*708 _0707_
*709 _0708_
*710 clk
*711 credit_t_route_inst\.l_counters_inst\.o_credits\[1\]
*712 credit_t_route_inst\.l_counters_inst\.o_credits\[2\]
*713 credit_t_route_inst\.l_counters_inst\.o_credits\[3\]
*714 credit_t_route_inst\.l_counters_inst\.o_credits\[6\]
*715 credit_t_route_inst\.l_counters_inst\.o_credits\[7\]
*716 credit_t_route_inst\.l_counters_inst\.o_credits\[8\]
*717 credit_t_route_inst\.r_counters_inst\.o_credits\[1\]
*718 credit_t_route_inst\.r_counters_inst\.o_credits\[2\]
*719 credit_t_route_inst\.r_counters_inst\.o_credits\[3\]
*720 credit_t_route_inst\.r_counters_inst\.o_credits\[6\]
*721 credit_t_route_inst\.r_counters_inst\.o_credits\[7\]
*722 credit_t_route_inst\.r_counters_inst\.o_credits\[8\]
*723 credit_t_route_inst\.u0_counters_inst\.o_credits\[1\]
*724 credit_t_route_inst\.u0_counters_inst\.o_credits\[2\]
*725 credit_t_route_inst\.u0_counters_inst\.o_credits\[3\]
*726 credit_t_route_inst\.u0_counters_inst\.o_credits\[6\]
*727 credit_t_route_inst\.u0_counters_inst\.o_credits\[7\]
*728 credit_t_route_inst\.u0_counters_inst\.o_credits\[8\]
*729 l_i[0]
*730 l_i[10]
*731 l_i[11]
*732 l_i[12]
*733 l_i[13]
*734 l_i[14]
*735 l_i[15]
*736 l_i[16]
*737 l_i[17]
*738 l_i[18]
*739 l_i[19]
*740 l_i[1]
*741 l_i[20]
*742 l_i[21]
*743 l_i[22]
*744 l_i[23]
*745 l_i[24]
*746 l_i[25]
*747 l_i[26]
*748 l_i[27]
*749 l_i[28]
*750 l_i[29]
*751 l_i[2]
*752 l_i[30]
*753 l_i[31]
*754 l_i[32]
*755 l_i[33]
*756 l_i[34]
*757 l_i[35]
*758 l_i[36]
*759 l_i[37]
*760 l_i[38]
*761 l_i[39]
*762 l_i[3]
*763 l_i[40]
*764 l_i[41]
*765 l_i[42]
*766 l_i[43]
*767 l_i[44]
*768 l_i[45]
*769 l_i[46]
*770 l_i[47]
*771 l_i[48]
*772 l_i[49]
*773 l_i[4]
*774 l_i[50]
*775 l_i[51]
*776 l_i[52]
*777 l_i[53]
*778 l_i[54]
*779 l_i[55]
*780 l_i[56]
*781 l_i[57]
*782 l_i[58]
*783 l_i[59]
*784 l_i[5]
*785 l_i[60]
*786 l_i[61]
*787 l_i[62]
*788 l_i[63]
*789 l_i[64]
*790 l_i[65]
*791 l_i[66]
*792 l_i[67]
*793 l_i[68]
*794 l_i[69]
*795 l_i[6]
*796 l_i[70]
*797 l_i[71]
*798 l_i[72]
*799 l_i[73]
*800 l_i[7]
*801 l_i[8]
*802 l_i[9]
*803 net236
*804 net237
*805 l_i_v[0]
*806 l_i_v[1]
*807 net238
*808 net239
*809 net240
*810 net241
*811 net242
*812 net243
*813 net244
*814 net245
*815 net246
*816 net247
*817 net248
*818 net249
*819 net250
*820 net251
*821 net252
*822 net253
*823 net254
*824 net255
*825 net256
*826 net257
*827 net258
*828 net259
*829 net260
*830 net261
*831 net262
*832 net263
*833 net264
*834 net265
*835 net266
*836 net267
*837 net268
*838 net269
*839 net270
*840 net271
*841 net272
*842 net273
*843 net274
*844 l_o_credit_gnt[0]
*845 l_o_credit_gnt[1]
*846 net275
*847 net276
*848 r_i[0]
*849 r_i[10]
*850 r_i[11]
*851 r_i[12]
*852 r_i[13]
*853 r_i[14]
*854 r_i[15]
*855 r_i[16]
*856 r_i[17]
*857 r_i[18]
*858 r_i[19]
*859 r_i[1]
*860 r_i[20]
*861 r_i[21]
*862 r_i[22]
*863 r_i[23]
*864 r_i[24]
*865 r_i[25]
*866 r_i[26]
*867 r_i[27]
*868 r_i[28]
*869 r_i[29]
*870 r_i[2]
*871 r_i[30]
*872 r_i[31]
*873 r_i[32]
*874 r_i[33]
*875 r_i[34]
*876 r_i[35]
*877 r_i[36]
*878 r_i[37]
*879 r_i[38]
*880 r_i[39]
*881 r_i[3]
*882 r_i[40]
*883 r_i[41]
*884 r_i[42]
*885 r_i[43]
*886 r_i[44]
*887 r_i[45]
*888 r_i[46]
*889 r_i[47]
*890 r_i[48]
*891 r_i[49]
*892 r_i[4]
*893 r_i[50]
*894 r_i[51]
*895 r_i[52]
*896 r_i[53]
*897 r_i[54]
*898 r_i[55]
*899 r_i[56]
*900 r_i[57]
*901 r_i[58]
*902 r_i[59]
*903 r_i[5]
*904 r_i[60]
*905 r_i[61]
*906 r_i[62]
*907 r_i[63]
*908 r_i[64]
*909 r_i[65]
*910 r_i[66]
*911 r_i[67]
*912 r_i[68]
*913 r_i[69]
*914 r_i[6]
*915 r_i[70]
*916 r_i[71]
*917 r_i[72]
*918 r_i[73]
*919 r_i[7]
*920 r_i[8]
*921 r_i[9]
*922 net277
*923 net278
*924 r_i_v[0]
*925 r_i_v[1]
*926 net279
*927 net280
*928 net281
*929 net282
*930 net283
*931 net284
*932 net285
*933 net286
*934 net287
*935 net288
*936 net289
*937 net290
*938 net291
*939 net292
*940 net293
*941 net294
*942 net295
*943 net296
*944 net297
*945 net298
*946 net299
*947 net300
*948 net301
*949 net302
*950 net303
*951 net304
*952 net305
*953 net306
*954 net307
*955 net308
*956 net309
*957 net310
*958 net311
*959 net312
*960 net313
*961 net314
*962 net315
*963 r_o_credit_gnt[0]
*964 r_o_credit_gnt[1]
*965 net316
*966 net317
*967 rst
*968 u0_i[0]
*969 u0_i[10]
*970 u0_i[11]
*971 u0_i[12]
*972 u0_i[13]
*973 u0_i[14]
*974 u0_i[15]
*975 u0_i[16]
*976 u0_i[17]
*977 u0_i[18]
*978 u0_i[19]
*979 u0_i[1]
*980 u0_i[20]
*981 u0_i[21]
*982 u0_i[22]
*983 u0_i[23]
*984 u0_i[24]
*985 u0_i[25]
*986 u0_i[26]
*987 u0_i[27]
*988 u0_i[28]
*989 u0_i[29]
*990 u0_i[2]
*991 u0_i[30]
*992 u0_i[31]
*993 u0_i[32]
*994 u0_i[33]
*995 u0_i[34]
*996 u0_i[35]
*997 u0_i[36]
*998 u0_i[37]
*999 u0_i[38]
*1000 u0_i[39]
*1001 u0_i[3]
*1002 u0_i[40]
*1003 u0_i[41]
*1004 u0_i[42]
*1005 u0_i[43]
*1006 u0_i[44]
*1007 u0_i[45]
*1008 u0_i[46]
*1009 u0_i[47]
*1010 u0_i[48]
*1011 u0_i[49]
*1012 u0_i[4]
*1013 u0_i[50]
*1014 u0_i[51]
*1015 u0_i[52]
*1016 u0_i[53]
*1017 u0_i[54]
*1018 u0_i[55]
*1019 u0_i[56]
*1020 u0_i[57]
*1021 u0_i[58]
*1022 u0_i[59]
*1023 u0_i[5]
*1024 u0_i[60]
*1025 u0_i[61]
*1026 u0_i[62]
*1027 u0_i[63]
*1028 u0_i[64]
*1029 u0_i[65]
*1030 u0_i[66]
*1031 u0_i[67]
*1032 u0_i[68]
*1033 u0_i[69]
*1034 u0_i[6]
*1035 u0_i[70]
*1036 u0_i[71]
*1037 u0_i[72]
*1038 u0_i[73]
*1039 u0_i[7]
*1040 u0_i[8]
*1041 u0_i[9]
*1042 net318
*1043 net319
*1044 u0_i_v[0]
*1045 u0_i_v[1]
*1046 net320
*1047 net321
*1048 net322
*1049 net323
*1050 net324
*1051 net325
*1052 net326
*1053 net327
*1054 net328
*1055 net329
*1056 net330
*1057 net331
*1058 net332
*1059 net333
*1060 net334
*1061 net335
*1062 net336
*1063 net337
*1064 net338
*1065 net339
*1066 net340
*1067 net341
*1068 net342
*1069 net343
*1070 net344
*1071 net345
*1072 net346
*1073 net347
*1074 net348
*1075 net349
*1076 net350
*1077 net351
*1078 net352
*1079 net353
*1080 net354
*1081 net355
*1082 net356
*1083 u0_o_credit_gnt[0]
*1084 u0_o_credit_gnt[1]
*1085 net357
*1086 net358
*1089 net1
*1090 net2
*1091 net3
*1092 net4
*1093 net5
*1094 net6
*1095 net7
*1096 net8
*1097 net9
*1098 net10
*1099 net11
*1100 net12
*1101 net13
*1102 net14
*1103 net15
*1104 net16
*1105 net17
*1106 net18
*1107 net19
*1108 net20
*1109 net21
*1110 net22
*1111 net23
*1112 net24
*1113 net25
*1114 net26
*1115 net27
*1116 net28
*1117 net29
*1118 net30
*1119 net31
*1120 net32
*1121 net33
*1122 net34
*1123 net35
*1124 net36
*1125 net37
*1126 net38
*1127 net39
*1128 net40
*1129 net41
*1130 net42
*1131 net43
*1132 net44
*1133 net45
*1134 net46
*1135 net47
*1136 net48
*1137 net49
*1138 net50
*1139 net51
*1140 net52
*1141 net53
*1142 net54
*1143 net55
*1144 net56
*1145 net57
*1146 net58
*1147 net59
*1148 net60
*1149 net61
*1150 net62
*1151 net63
*1152 net64
*1153 net65
*1154 net66
*1155 net67
*1156 net68
*1157 net69
*1158 net70
*1159 net71
*1160 net72
*1161 net73
*1162 net74
*1163 net75
*1164 net76
*1165 net77
*1166 net78
*1167 net79
*1168 net80
*1169 net81
*1170 net82
*1171 net83
*1172 net84
*1173 net85
*1174 net86
*1175 net87
*1176 net88
*1177 net89
*1178 net90
*1179 net91
*1180 net92
*1181 net93
*1182 net94
*1183 net95
*1184 net96
*1185 net97
*1186 net98
*1187 net99
*1188 net100
*1189 net101
*1190 net102
*1191 net103
*1192 net104
*1193 net105
*1194 net106
*1195 net107
*1196 net108
*1197 net109
*1198 net110
*1199 net111
*1200 net112
*1201 net113
*1202 net114
*1203 net115
*1204 net116
*1205 net117
*1206 net118
*1207 net119
*1208 net120
*1209 net121
*1210 net122
*1211 net123
*1212 net124
*1213 net125
*1214 net126
*1215 net127
*1216 net128
*1217 net129
*1218 net130
*1219 net131
*1220 net132
*1221 net133
*1222 net134
*1223 net135
*1224 net136
*1225 net137
*1226 net138
*1227 net139
*1228 net140
*1229 net141
*1230 net142
*1231 net143
*1232 net144
*1233 net145
*1234 net146
*1235 net147
*1236 net148
*1237 net149
*1238 net150
*1239 net151
*1240 net152
*1241 net153
*1242 net154
*1243 net155
*1244 net156
*1245 net157
*1246 net158
*1247 net159
*1248 net160
*1249 net161
*1250 net162
*1251 net163
*1252 net164
*1253 net165
*1254 net166
*1255 net167
*1256 net168
*1257 net169
*1258 net170
*1259 net171
*1260 net172
*1261 net173
*1262 net174
*1263 net175
*1264 net176
*1265 net177
*1266 net178
*1267 net179
*1268 net180
*1269 net181
*1270 net182
*1271 net183
*1272 net184
*1273 net185
*1274 net186
*1275 net187
*1276 net188
*1277 net189
*1278 net190
*1279 net191
*1280 net192
*1281 net193
*1282 net194
*1283 net195
*1284 net196
*1285 net197
*1286 net198
*1287 net199
*1288 net200
*1289 net201
*1290 net202
*1291 net203
*1292 net204
*1293 net205
*1294 net206
*1295 net207
*1296 net208
*1297 net209
*1298 net210
*1299 net211
*1300 net212
*1301 net213
*1302 net214
*1303 net215
*1304 net216
*1305 net217
*1306 net218
*1307 net219
*1308 net220
*1309 net221
*1310 net222
*1311 net223
*1312 net224
*1313 net225
*1314 net226
*1315 net227
*1316 net228
*1317 net229
*1318 net230
*1319 net231
*1320 net232
*1321 net233
*1322 net234
*1323 net235
*1324 l_i_bp[0]
*1325 l_i_bp[1]
*1326 l_o[0]
*1327 l_o[10]
*1328 l_o[11]
*1329 l_o[12]
*1330 l_o[13]
*1331 l_o[14]
*1332 l_o[15]
*1333 l_o[16]
*1334 l_o[17]
*1335 l_o[18]
*1336 l_o[19]
*1337 l_o[1]
*1338 l_o[20]
*1339 l_o[21]
*1340 l_o[22]
*1341 l_o[23]
*1342 l_o[24]
*1343 l_o[25]
*1344 l_o[26]
*1345 l_o[27]
*1346 l_o[28]
*1347 l_o[29]
*1348 l_o[2]
*1349 l_o[30]
*1350 l_o[31]
*1351 l_o[32]
*1352 l_o[33]
*1353 l_o[34]
*1354 l_o[35]
*1355 l_o[36]
*1356 l_o[3]
*1357 l_o[4]
*1358 l_o[5]
*1359 l_o[6]
*1360 l_o[7]
*1361 l_o[8]
*1362 l_o[9]
*1363 l_o_v[0]
*1364 l_o_v[1]
*1365 r_i_bp[0]
*1366 r_i_bp[1]
*1367 r_o[0]
*1368 r_o[10]
*1369 r_o[11]
*1370 r_o[12]
*1371 r_o[13]
*1372 r_o[14]
*1373 r_o[15]
*1374 r_o[16]
*1375 r_o[17]
*1376 r_o[18]
*1377 r_o[19]
*1378 r_o[1]
*1379 r_o[20]
*1380 r_o[21]
*1381 r_o[22]
*1382 r_o[23]
*1383 r_o[24]
*1384 r_o[25]
*1385 r_o[26]
*1386 r_o[27]
*1387 r_o[28]
*1388 r_o[29]
*1389 r_o[2]
*1390 r_o[30]
*1391 r_o[31]
*1392 r_o[32]
*1393 r_o[33]
*1394 r_o[34]
*1395 r_o[35]
*1396 r_o[36]
*1397 r_o[3]
*1398 r_o[4]
*1399 r_o[5]
*1400 r_o[6]
*1401 r_o[7]
*1402 r_o[8]
*1403 r_o[9]
*1404 r_o_v[0]
*1405 r_o_v[1]
*1406 u0_i_bp[0]
*1407 u0_i_bp[1]
*1408 u0_o[0]
*1409 u0_o[10]
*1410 u0_o[11]
*1411 u0_o[12]
*1412 u0_o[13]
*1413 u0_o[14]
*1414 u0_o[15]
*1415 u0_o[16]
*1416 u0_o[17]
*1417 u0_o[18]
*1418 u0_o[19]
*1419 u0_o[1]
*1420 u0_o[20]
*1421 u0_o[21]
*1422 u0_o[22]
*1423 u0_o[23]
*1424 u0_o[24]
*1425 u0_o[25]
*1426 u0_o[26]
*1427 u0_o[27]
*1428 u0_o[28]
*1429 u0_o[29]
*1430 u0_o[2]
*1431 u0_o[30]
*1432 u0_o[31]
*1433 u0_o[32]
*1434 u0_o[33]
*1435 u0_o[34]
*1436 u0_o[35]
*1437 u0_o[36]
*1438 u0_o[3]
*1439 u0_o[4]
*1440 u0_o[5]
*1441 u0_o[6]
*1442 u0_o[7]
*1443 u0_o[8]
*1444 u0_o[9]
*1445 u0_o_v[0]
*1446 u0_o_v[1]
*1447 clknet_0_clk
*1448 clknet_2_0__leaf_clk
*1449 clknet_2_1__leaf_clk
*1450 clknet_2_2__leaf_clk
*1451 clknet_2_3__leaf_clk
*1452 _0709_
*1453 _0710_
*1454 _0711_
*1455 _0712_
*1456 _0713_
*1457 _0714_
*1458 _0715_
*1459 _0716_
*1460 _0717_
*1461 _0718_
*1462 _0719_
*1463 _0720_
*1464 _0721_
*1465 _0722_
*1466 _0723_
*1467 _0724_
*1468 _0725_
*1469 _0726_
*1470 _0727_
*1471 _0728_
*1472 _0729_
*1473 _0730_
*1474 _0731_
*1475 _0732_
*1476 _0733_
*1477 _0734_
*1478 _0735_
*1479 _0736_
*1480 _0737_
*1481 _0738_
*1482 _0739_
*1483 _0740_
*1484 _0741_
*1485 _0742_
*1486 _0743_
*1487 _0744_
*1488 _0745_
*1489 _0746_
*1490 _0747_
*1491 _0748_
*1492 _0749_
*1493 _0750_
*1494 _0751_
*1495 _0752_
*1496 _0753_
*1497 _0754_
*1498 _0755_
*1499 _0756_
*1500 _0757_
*1501 _0758_
*1502 _0759_
*1503 _0760_
*1504 _0761_
*1505 _0762_
*1506 _0763_
*1507 _0764_
*1508 _0765_
*1509 _0766_
*1510 _0767_
*1511 _0768_
*1512 _0769_
*1513 _0770_
*1514 _0771_
*1515 _0772_
*1516 _0773_
*1517 _0774_
*1518 _0775_
*1519 _0776_
*1520 _0777_
*1521 _0778_
*1522 _0779_
*1523 _0780_
*1524 _0781_
*1525 _0782_
*1526 _0783_
*1527 _0784_
*1528 _0785_
*1529 _0786_
*1530 _0787_
*1531 _0788_
*1532 _0789_
*1533 _0790_
*1534 _0791_
*1535 _0792_
*1536 _0793_
*1537 _0794_
*1538 _0795_
*1539 _0796_
*1540 _0797_
*1541 _0798_
*1542 _0799_
*1543 _0800_
*1544 _0801_
*1545 _0802_
*1546 _0803_
*1547 _0804_
*1548 _0805_
*1549 _0806_
*1550 _0807_
*1551 _0808_
*1552 _0809_
*1553 _0810_
*1554 _0811_
*1555 _0812_
*1556 _0813_
*1557 _0814_
*1558 _0815_
*1559 _0816_
*1560 _0817_
*1561 _0818_
*1562 _0819_
*1563 _0820_
*1564 _0821_
*1565 _0822_
*1566 _0823_
*1567 _0824_
*1568 _0825_
*1569 _0826_
*1570 _0827_
*1571 _0828_
*1572 _0829_
*1573 _0830_
*1574 _0831_
*1575 _0832_
*1576 _0833_
*1577 _0834_
*1578 _0835_
*1579 _0836_
*1580 _0837_
*1581 _0838_
*1582 _0839_
*1583 _0840_
*1584 _0841_
*1585 _0842_
*1586 _0843_
*1587 _0844_
*1588 _0845_
*1589 _0846_
*1590 _0847_
*1591 _0848_
*1592 _0849_
*1593 _0850_
*1594 _0851_
*1595 _0852_
*1596 _0853_
*1597 _0854_
*1598 _0855_
*1599 _0856_
*1600 _0857_
*1601 _0858_
*1602 _0859_
*1603 _0860_
*1604 _0861_
*1605 _0862_
*1606 _0863_
*1607 _0864_
*1608 _0865_
*1609 _0866_
*1610 _0867_
*1611 _0868_
*1612 _0869_
*1613 _0870_
*1614 _0871_
*1615 _0872_
*1616 _0873_
*1617 _0874_
*1618 _0875_
*1619 _0876_
*1620 _0877_
*1621 _0878_
*1622 _0879_
*1623 _0880_
*1624 _0881_
*1625 _0882_
*1626 _0883_
*1627 _0884_
*1628 _0885_
*1629 _0886_
*1630 _0887_
*1631 _0888_
*1632 _0889_
*1633 _0890_
*1634 _0891_
*1635 _0892_
*1636 _0893_
*1637 _0894_
*1638 _0895_
*1639 _0896_
*1640 _0897_
*1641 _0898_
*1642 _0899_
*1643 _0900_
*1644 _0901_
*1645 _0902_
*1646 _0903_
*1647 _0904_
*1648 _0905_
*1649 _0906_
*1650 _0907_
*1651 _0908_
*1652 _0909_
*1653 _0910_
*1654 _0911_
*1655 _0912_
*1656 _0913_
*1657 _0914_
*1658 _0915_
*1659 _0916_
*1660 _0917_
*1661 _0918_
*1662 _0919_
*1663 _0920_
*1664 _0921_
*1665 _0922_
*1666 _0923_
*1667 _0924_
*1668 _0925_
*1669 _0926_
*1670 _0927_
*1671 _0928_
*1672 _0929_
*1673 _0930_
*1674 _0931_
*1675 _0932_
*1676 _0933_
*1677 _0934_
*1678 _0935_
*1679 _0936_
*1680 _0937_
*1681 _0938_
*1682 _0939_
*1683 _0940_
*1684 _0941_
*1685 _0942_
*1686 _0943_
*1687 _0944_
*1688 _0945_
*1689 _0946_
*1690 _0947_
*1691 _0948_
*1692 _0949_
*1693 _0950_
*1694 _0951_
*1695 _0952_
*1696 _0953_
*1697 _0954_
*1698 _0955_
*1699 _0956_
*1700 _0957_
*1701 _0958_
*1702 _0959_
*1703 _0960_
*1704 _0961_
*1705 _0962_
*1706 _0963_
*1707 _0964_
*1708 _0965_
*1709 _0966_
*1710 _0967_
*1711 _0968_
*1712 _0969_
*1713 _0970_
*1714 _0971_
*1715 _0972_
*1716 _0973_
*1717 _0974_
*1718 _0975_
*1719 _0976_
*1720 _0977_
*1721 _0978_
*1722 _0979_
*1723 _0980_
*1724 _0981_
*1725 _0982_
*1726 _0983_
*1727 _0984_
*1728 _0985_
*1729 _0986_
*1730 _0987_
*1731 _0988_
*1732 _0989_
*1733 _0990_
*1734 _0991_
*1735 _0992_
*1736 _0993_
*1737 _0994_
*1738 _0995_
*1739 _0996_
*1740 _0997_
*1741 _0998_
*1742 _0999_
*1743 _1000_
*1744 _1001_
*1745 _1002_
*1746 _1003_
*1747 _1004_
*1748 _1005_
*1749 _1006_
*1750 _1007_
*1751 _1008_
*1752 _1009_
*1753 _1010_
*1754 _1011_
*1755 _1012_
*1756 _1013_
*1757 _1014_
*1758 _1015_
*1759 _1016_
*1760 _1017_
*1761 _1018_
*1762 _1019_
*1763 _1020_
*1764 _1021_
*1765 _1022_
*1766 _1023_
*1767 _1024_
*1768 _1025_
*1769 _1026_
*1770 _1027_
*1771 _1028_
*1772 _1029_
*1773 _1030_
*1774 _1031_
*1775 _1032_
*1776 _1033_
*1777 _1034_
*1778 _1035_
*1779 _1036_
*1780 _1037_
*1781 _1038_
*1782 _1039_
*1783 _1040_
*1784 _1041_
*1785 _1042_
*1786 _1043_
*1787 _1044_
*1788 _1045_
*1789 _1046_
*1790 _1047_
*1791 _1048_
*1792 _1049_
*1793 _1050_
*1794 _1051_
*1795 _1052_
*1796 _1053_
*1797 _1054_
*1798 _1055_
*1799 _1056_
*1800 _1057_
*1801 _1058_
*1802 _1059_
*1803 _1060_
*1804 _1061_
*1805 _1062_
*1806 _1063_
*1807 _1064_
*1808 _1065_
*1809 _1066_
*1810 _1067_
*1811 _1068_
*1812 _1069_
*1813 _1070_
*1814 _1071_
*1815 _1072_
*1816 _1073_
*1817 _1074_
*1818 _1075_
*1819 _1076_
*1820 _1077_
*1821 _1078_
*1822 _1079_
*1823 _1080_
*1824 _1081_
*1825 _1082_
*1826 _1083_
*1827 _1084_
*1828 _1085_
*1829 _1086_
*1830 _1087_
*1831 _1088_
*1832 _1089_
*1833 _1090_
*1834 _1091_
*1835 _1092_
*1836 _1093_
*1837 _1094_
*1838 _1095_
*1839 _1096_
*1840 _1097_
*1841 _1098_
*1842 _1099_
*1843 _1100_
*1844 _1101_
*1845 _1102_
*1846 _1103_
*1847 _1104_
*1848 _1105_
*1849 _1106_
*1850 _1107_
*1851 _1108_
*1852 _1109_
*1853 _1110_
*1854 _1111_
*1855 _1112_
*1856 _1113_
*1857 _1114_
*1858 _1115_
*1859 _1116_
*1860 _1117_
*1861 _1118_
*1862 _1119_
*1863 _1120_
*1864 _1121_
*1865 _1122_
*1866 _1123_
*1867 _1124_
*1868 _1125_
*1869 _1126_
*1870 _1127_
*1871 _1128_
*1872 _1129_
*1873 _1130_
*1874 _1131_
*1875 _1132_
*1876 _1133_
*1877 _1134_
*1878 _1135_
*1879 _1136_
*1880 _1137_
*1881 _1138_
*1882 _1139_
*1883 _1140_
*1884 _1141_
*1885 _1142_
*1886 _1143_
*1887 _1144_
*1888 _1145_
*1889 _1146_
*1890 _1147_
*1891 _1148_
*1892 _1149_
*1893 _1150_
*1894 _1151_
*1895 _1152_
*1896 _1153_
*1897 _1154_
*1898 _1155_
*1899 _1156_
*1900 _1157_
*1901 _1158_
*1902 _1159_
*1903 _1160_
*1904 _1161_
*1905 _1162_
*1906 _1163_
*1907 _1164_
*1908 _1165_
*1909 _1166_
*1910 _1167_
*1911 _1168_
*1912 _1169_
*1913 _1170_
*1914 _1171_
*1915 _1172_
*1916 _1173_
*1917 _1174_
*1918 _1175_
*1919 _1176_
*1920 _1177_
*1921 _1178_
*1922 _1179_
*1923 _1180_
*1924 _1181_
*1925 _1182_
*1926 _1183_
*1927 _1184_
*1928 _1185_
*1929 _1186_
*1930 _1187_
*1931 _1188_
*1932 _1189_
*1933 _1190_
*1934 _1191_
*1935 _1192_
*1936 _1193_
*1937 _1194_
*1938 _1195_
*1939 _1196_
*1940 _1197_
*1941 _1198_
*1942 _1199_
*1943 _1200_
*1944 _1201_
*1945 _1202_
*1946 _1203_
*1947 _1204_
*1948 _1205_
*1949 _1206_
*1950 _1207_
*1951 _1208_
*1952 _1209_
*1953 _1210_
*1954 _1211_
*1955 _1212_
*1956 _1213_
*1957 _1214_
*1958 _1215_
*1959 _1216_
*1960 _1217_
*1961 _1218_
*1962 _1219_
*1963 _1220_
*1964 _1221_
*1965 _1222_
*1966 _1223_
*1967 _1224_
*1968 _1225_
*1969 _1226_
*1970 _1227_
*1971 _1228_
*1972 _1229_
*1973 _1230_
*1974 _1231_
*1975 _1232_
*1976 _1233_
*1977 _1234_
*1978 _1235_
*1979 _1236_
*1980 _1237_
*1981 _1238_
*1982 _1239_
*1983 _1240_
*1984 _1241_
*1985 _1242_
*1986 _1243_
*1987 _1244_
*1988 _1245_
*1989 _1246_
*1990 _1247_
*1991 _1248_
*1992 _1249_
*1993 _1250_
*1994 _1251_
*1995 _1252_
*1996 _1253_
*1997 _1254_
*1998 _1255_
*1999 _1256_
*2000 _1257_
*2001 _1258_
*2002 _1259_
*2003 _1260_
*2004 _1261_
*2005 _1262_
*2006 _1263_
*2007 _1264_
*2008 _1265_
*2009 _1266_
*2010 _1267_
*2011 _1268_
*2012 _1269_
*2013 _1270_
*2014 _1271_
*2015 _1272_
*2016 _1273_
*2017 _1274_
*2018 _1275_
*2019 _1276_
*2020 _1277_
*2021 _1278_
*2022 _1279_
*2023 _1280_
*2024 _1281_
*2025 _1282_
*2026 _1283_
*2027 _1284_
*2028 _1285_
*2029 _1286_
*2030 _1287_
*2031 _1288_
*2032 _1289_
*2033 _1290_
*2034 _1291_
*2035 _1292_
*2036 _1293_
*2037 _1294_
*2038 _1295_
*2039 _1296_
*2040 _1297_
*2041 _1298_
*2042 _1299_
*2043 _1300_
*2044 _1301_
*2045 _1302_
*2046 _1303_
*2047 _1304_
*2048 _1305_
*2049 _1306_
*2050 _1307_
*2051 _1308_
*2052 _1309_
*2053 _1310_
*2054 _1311_
*2055 _1312_
*2056 _1313_
*2057 _1314_
*2058 _1315_
*2059 _1316_
*2060 _1317_
*2061 _1318_
*2062 _1319_
*2063 _1320_
*2064 _1321_
*2065 _1322_
*2066 _1323_
*2067 _1324_
*2068 _1325_
*2069 _1326_
*2070 _1327_
*2071 _1328_
*2072 _1329_
*2073 _1330_
*2074 _1331_
*2075 _1332_
*2076 _1333_
*2077 _1334_
*2078 _1335_
*2079 _1336_
*2080 _1337_
*2081 _1338_
*2082 _1339_
*2083 _1340_
*2084 _1341_
*2085 _1342_
*2086 _1343_
*2087 _1344_
*2088 _1345_
*2089 _1346_
*2090 _1347_
*2091 _1348_
*2092 _1349_
*2093 _1350_
*2094 _1351_
*2095 _1352_
*2096 _1353_
*2097 _1354_
*2098 _1355_
*2099 _1356_
*2100 _1357_
*2101 _1358_
*2102 _1359_
*2103 _1360_
*2104 _1361_
*2105 _1362_
*2106 _1363_
*2107 _1364_
*2108 _1365_
*2109 _1366_
*2110 _1367_
*2111 _1368_
*2112 _1369_
*2113 _1370_
*2114 _1371_
*2115 _1372_
*2116 _1373_
*2117 _1374_
*2118 _1375_
*2119 _1376_
*2120 _1377_
*2121 _1378_
*2122 _1379_
*2123 _1380_
*2124 _1381_
*2125 _1382_
*2126 _1383_
*2127 _1384_
*2128 _1385_
*2129 _1386_
*2130 _1387_
*2131 _1388_
*2132 _1389_
*2133 _1390_
*2134 _1391_
*2135 _1392_
*2136 _1393_
*2137 _1394_
*2138 _1395_
*2139 _1396_
*2140 _1397_
*2141 _1398_
*2142 _1399_
*2143 _1400_
*2144 _1401_
*2145 _1402_
*2146 _1403_
*2147 _1404_
*2148 _1405_
*2149 _1406_
*2150 _1407_
*2151 _1408_
*2152 _1409_
*2153 _1410_
*2154 _1411_
*2155 _1412_
*2156 _1413_
*2157 _1414_
*2158 _1415_
*2159 _1416_
*2160 _1417_
*2161 _1418_
*2162 _1419_
*2163 _1420_
*2164 _1421_
*2165 _1422_
*2166 _1423_
*2167 _1424_
*2168 _1425_
*2169 _1426_
*2170 _1427_
*2171 _1428_
*2172 _1429_
*2173 _1430_
*2174 _1431_
*2175 _1432_
*2176 _1433_
*2177 _1434_
*2178 _1435_
*2179 _1436_
*2180 _1437_
*2181 _1438_
*2182 _1439_
*2183 _1440_
*2184 _1441_
*2185 _1442_
*2186 _1443_
*2187 _1444_
*2188 _1445_
*2189 _1446_
*2190 _1447_
*2191 _1448_
*2192 _1449_
*2193 _1450_
*2194 _1451_
*2195 _1452_
*2196 _1453_
*2197 _1454_
*2198 _1455_
*2199 _1456_
*2200 _1457_
*2201 _1458_
*2202 _1459_
*2203 _1460_
*2204 _1461_
*2205 _1462_
*2206 _1463_
*2207 _1464_
*2208 _1465_
*2209 _1466_
*2210 _1467_
*2211 _1468_
*2212 _1469_
*2213 _1470_
*2214 _1471_
*2215 _1472_
*2216 _1473_
*2217 _1474_
*2218 _1475_
*2219 _1476_
*2220 _1477_
*2221 _1478_
*2222 _1479_
*2223 _1480_
*2224 _1481_
*2225 _1482_
*2226 _1483_
*2227 _1484_
*2228 _1485_
*2229 _1486_
*2230 _1487_
*2231 _1488_
*2232 _1489_
*2233 _1490_
*2234 _1491_
*2235 _1492_
*2236 _1493_
*2237 _1494_
*2238 _1495_
*2239 _1496_
*2240 _1497_
*2241 _1498_
*2242 _1499_
*2243 _1500_
*2244 _1501_
*2245 credit_t_route_inst\.l_counters_inst\.o_credits\[0\]\$_SDFFE_PP1P_
*2246 credit_t_route_inst\.l_counters_inst\.o_credits\[1\]\$_SDFFE_PP1P_
*2247 credit_t_route_inst\.l_counters_inst\.o_credits\[2\]\$_SDFFE_PP1P_
*2248 credit_t_route_inst\.l_counters_inst\.o_credits\[3\]\$_SDFFE_PP1P_