*SPEF "ieee 1481-1999"
*DESIGN "mux"
*DATE "23:48:23 Wednesday August 13, 2025"
*VENDOR "The OpenROAD Project"
*PROGRAM "OpenROAD"
*VERSION "v2.0-21872-gd51df1dea5"
*DESIGN_FLOW "NAME_SCOPE LOCAL" "PIN_CAP NONE"
*DIVIDER /
*DELIMITER :
*BUS_DELIMITER []
*T_UNIT 1 NS
*C_UNIT 1 PF
*R_UNIT 1 OHM
*L_UNIT 1 HENRY

*NAME_MAP
*1 _00_
*2 _01_
*3 _02_
*4 _03_
*5 _04_
*6 _05_
*7 _06_
*8 _07_
*9 _08_
*10 _09_
*11 _10_
*12 a
*13 b
*14 clk
*15 rst
*16 sel
*17 net5
*20 net1
*21 net2
*22 net3
*23 net4
*24 y
*25 clknet_0_clk
*26 clknet_1_0__leaf_clk
*27 clknet_1_1__leaf_clk
*28 _11_
*29 _12_
*30 _13_
*31 _14_
*32 _15_
*33 _16_
*34 _17_
*35 _18_
*36 a_r\$_SDFF_PP0_
*37 b_r\$_SDFF_PP0_
*38 sel_r\$_SDFF_PP0_
*39 y\$_SDFF_PP0_
*40 PHY_EDGE_ROW_0_Right_0
*41 PHY_EDGE_ROW_1_Right_1
*42 PHY_EDGE_ROW_2_Right_2
*43 PHY_EDGE_ROW_3_Right_3
*44 PHY_EDGE_ROW_4_Right_4
*45 PHY_EDGE_ROW_5_Right_5
*46 PHY_EDGE_ROW_6_Right_6
*47 PHY_EDGE_ROW_0_Left_7
*48 PHY_EDGE_ROW_1_Left_8
*49 PHY_EDGE_ROW_2_Left_9
*50 PHY_EDGE_ROW_3_Left_10
*51 PHY_EDGE_ROW_4_Left_11
*52 PHY_EDGE_ROW_5_Left_12
*53 PHY_EDGE_ROW_6_Left_13
*54 input1
*55 input2
*56 input3
*57 input4
*58 output5
*59 clkbuf_0_clk
*60 clkbuf_1_0__f_clk
*61 clkbuf_1_1__f_clk
*62 FILLER_0_2
*63 FILLER_0_21
*64 FILLER_0_35
*65 FILLER_1_14
*66 FILLER_2_2
*67 FILLER_2_6
*68 FILLER_2_27
*69 FILLER_3_2
*70 FILLER_3_18
*71 FILLER_4_2
*72 FILLER_4_32
*73 FILLER_5_14
*74 FILLER_6_19
*75 FILLER_6_29
*76 FILLER_6_33
*77 FILLER_6_35

*PORTS
a I
b I
clk I
rst I
sel I
y O

*D_NET *1 5.92156e-05
*CONN
*I *28:A I *D INVx1_ASAP7_75t_R
*I *39:QN O *D DFFHQNx1_ASAP7_75t_R
*CAP
1 *28:A 1.56554e-05
2 *39:QN 5.94671e-06
3 *1:8 2.16021e-05
4 *28:A *17:16 1.60115e-05
5 *1:8 *17:20 0
*RES
1 *39:QN *1:8 37.779 
2 *1:8 *28:A 42.4224 
*END

*D_NET *2 6.77805e-05
*CONN
*I *35:A1 I *D OA211x2_ASAP7_75t_R
*I *34:A I *D NAND2x1_ASAP7_75t_R
*I *38:QN O *D DFFHQNx1_ASAP7_75t_R
*CAP
1 *35:A1 0
2 *34:A 0
3 *38:QN 0
4 *2:27 1.57911e-05
5 *2:12 9.61792e-06
6 *2:4 2.5409e-05
7 *2:12 *9:40 8.11866e-06
8 *2:27 *35:A2 2.52755e-07
9 *2:27 *35:B 4.96415e-06
10 *2:27 *9:40 3.6269e-06
11 *2:27 *11:8 0
*RES
1 *38:QN *2:4 17.2 
2 *2:4 *2:12 41.0446 
3 *2:12 *34:A 17.2 
4 *2:4 *2:27 43.0989 
5 *2:27 *35:A1 17.2 
*END

*D_NET *3 3.07734e-05
*CONN
*I *34:B I *D NAND2x1_ASAP7_75t_R
*I *37:QN O *D DFFHQNx1_ASAP7_75t_R
*CAP
1 *34:B 7.55938e-06
2 *37:QN 7.51073e-06
3 *3:8 1.50701e-05
4 *3:8 *9:40 6.33206e-07
*RES
1 *37:QN *3:8 40.0317 
2 *3:8 *34:B 38.6786 
*END

*D_NET *4 3.02272e-05
*CONN
*I *33:A I *D INVx1_ASAP7_75t_R
*I *36:QN O *D DFFHQNx1_ASAP7_75t_R
*CAP
1 *33:A 0
2 *36:QN 1.51136e-05
3 *4:10 1.51136e-05
*RES
1 *36:QN *4:10 41.5228 
2 *4:10 *33:A 34.4 
*END

*D_NET *5 5.42963e-05
*CONN
*I *36:D I *D DFFHQNx1_ASAP7_75t_R
*I *30:Y O *D AND2x2_ASAP7_75t_R
*CAP
1 *36:D 2.71482e-05
2 *30:Y 2.71482e-05
*RES
1 *30:Y *36:D 46.701 
*END

*D_NET *6 5.13583e-05
*CONN
*I *37:D I *D DFFHQNx1_ASAP7_75t_R
*I *31:Y O *D AND2x2_ASAP7_75t_R
*CAP
1 *37:D 1.60243e-05
2 *31:Y 5.65329e-06
3 *6:8 2.16776e-05
4 *37:D *26:23 8.0031e-06
*RES
1 *31:Y *6:8 37.779 
2 *6:8 *37:D 42.4224 
*END

*D_NET *7 5.10253e-05
*CONN
*I *38:D I *D DFFHQNx1_ASAP7_75t_R
*I *32:Y O *D AND2x2_ASAP7_75t_R
*CAP
1 *38:D 1.38529e-05
2 *32:Y 3.60177e-06
3 *7:8 1.74547e-05
4 *38:D *38:CLK 6.17011e-06
5 *7:8 *21:12 9.94583e-06
*RES
1 *32:Y *7:8 37.779 
2 *7:8 *38:D 40.2831 
*END

*D_NET *8 0.000108963
*CONN
*I *39:D I *D DFFHQNx1_ASAP7_75t_R
*I *35:Y O *D OA211x2_ASAP7_75t_R
*CAP
1 *39:D 1.72387e-05
2 *35:Y 1.77703e-05
3 *8:10 3.5009e-05
4 *39:D *32:A 3.03306e-06
5 *8:10 *35:A2 2.59738e-05
6 *8:10 *9:53 9.93857e-06
*RES
1 *35:Y *8:10 45.8014 
2 *8:10 *39:D 42.4224 
*END

*D_NET *9 0.00037665
*CONN
*I *32:A I *D AND2x2_ASAP7_75t_R
*I *35:B I *D OA211x2_ASAP7_75t_R
*I *31:A I *D AND2x2_ASAP7_75t_R
*I *30:B I *D AND2x2_ASAP7_75t_R
*I *29:Y O *D INVx1_ASAP7_75t_R
*CAP
1 *32:A 4.01849e-05
2 *35:B 4.74837e-06
3 *31:A 0
4 *30:B 0
5 *29:Y 7.42439e-06
6 *9:53 5.46471e-05
7 *9:40 6.0547e-05
8 *9:29 7.34854e-05
9 *9:14 2.26486e-05
10 *9:6 6.2222e-05
11 *32:A *27:18 1.02506e-06
12 *35:B *35:A2 1.60115e-05
13 *9:14 *30:A 2.34603e-06
14 *9:14 *12:11 0
15 *9:29 *21:12 1.04475e-06
16 *9:40 *17:20 0
17 *9:53 *17:20 0
18 *9:53 *27:8 0
19 *39:D *32:A 3.03306e-06
20 *2:12 *9:40 8.11866e-06
21 *2:27 *35:B 4.96415e-06
22 *2:27 *9:40 3.6269e-06
23 *3:8 *9:40 6.33206e-07
24 *8:10 *9:53 9.93857e-06
*RES
1 *29:Y *9:6 19.8741 
2 *9:6 *9:14 48.3658 
3 *9:14 *30:B 17.2 
4 *9:6 *9:29 49.5168 
5 *9:29 *31:A 17.2 
6 *9:29 *9:40 44.4514 
7 *9:40 *35:B 39.2134 
8 *9:40 *9:53 27.337 
9 *9:53 *32:A 40.7323 
*END

*D_NET *10 0.000147064
*CONN
*I *35:A2 I *D OA211x2_ASAP7_75t_R
*I *33:Y O *D INVx1_ASAP7_75t_R
*CAP
1 *35:A2 1.16328e-05
2 *33:Y 1.83855e-05
3 *10:16 2.65063e-05
4 *10:8 3.32589e-05
5 *35:A2 *35:C 2.96818e-06
6 *10:8 *17:20 0
7 *10:16 *17:20 1.20741e-05
8 *35:B *35:A2 1.60115e-05
9 *2:27 *35:A2 2.52755e-07
10 *8:10 *35:A2 2.59738e-05
*RES
1 *33:Y *10:8 47.3528 
2 *10:8 *10:16 45.2949 
3 *10:16 *35:A2 46.1661 
*END

*D_NET *11 3.40756e-05
*CONN
*I *35:C I *D OA211x2_ASAP7_75t_R
*I *34:Y O *D NAND2x1_ASAP7_75t_R
*CAP
1 *35:C 2.80822e-06
2 *34:Y 8.41416e-06
3 *11:8 1.12224e-05
4 *11:8 *17:20 8.66267e-06
5 *35:A2 *35:C 2.96818e-06
6 *2:27 *11:8 0
*RES
1 *34:Y *11:8 41.158 
2 *11:8 *35:C 36.5393 
*END

*D_NET *12 0.000179881
*CONN
*P a I
*I *54:A I *D BUFx3_ASAP7_75t_R
*CAP
1 a 7.4371e-05
2 *54:A 0
3 *12:11 1.55694e-05
4 *12:5 8.99404e-05
5 *12:5 *14:5 0
6 *9:14 *12:11 0
*RES
1 a *12:5 38.9047 
2 *12:5 *12:11 46.5081 
3 *12:11 *54:A 17.2 
*END

*D_NET *13 0.000179661
*CONN
*P b I
*I *55:A I *D BUFx3_ASAP7_75t_R
*CAP
1 b 2.9361e-05
2 *55:A 1.0475e-05
3 *13:13 6.04697e-05
4 *13:11 7.93557e-05
*RES
1 b *13:11 43.8451 
2 *13:11 *13:13 46.4612 
3 *13:13 *55:A 39.2134 
*END

*D_NET *14 0.000261965
*CONN
*P clk I
*I *59:A I *D BUFx2_ASAP7_75t_R
*CAP
1 clk 6.5756e-05
2 *59:A 0
3 *14:11 1.15784e-05
4 *14:5 7.73344e-05
5 *14:5 *15:5 0.000107296
6 *14:11 *21:12 0
7 *14:11 *22:14 0
8 *12:5 *14:5 0
*RES
1 clk *14:5 43.4499 
2 *14:5 *14:11 41.6273 
3 *14:11 *59:A 17.2 
*END

*D_NET *15 0.000293228
*CONN
*P rst I
*I *56:A I *D BUFx3_ASAP7_75t_R
*CAP
1 rst 4.4161e-05
2 *56:A 0
3 *15:11 1.49032e-05
4 *15:5 5.90642e-05
5 *15:5 *16:9 5.35733e-05
6 *15:11 *22:14 1.42308e-05
7 *14:5 *15:5 0.000107296
*RES
1 rst *15:5 38.9047 
2 *15:5 *15:11 47.259 
3 *15:11 *56:A 17.2 
*END

*D_NET *16 0.000186718
*CONN
*P sel I
*I *57:A I *D BUFx3_ASAP7_75t_R
*CAP
1 sel 2.79207e-05
2 *57:A 0
3 *16:13 3.86517e-05
4 *16:9 6.65724e-05
5 *15:5 *16:9 5.35733e-05
*RES
1 sel *16:9 38.0332 
2 *16:9 *16:13 49.8243 
3 *16:13 *57:A 17.2 
*END

*D_NET *17 0.000126518
*CONN
*I *58:A I *D BUFx3_ASAP7_75t_R
*I *28:Y O *D INVx1_ASAP7_75t_R
*CAP
1 *58:A 0
2 *28:Y 1.0959e-05
3 *17:20 2.97088e-05
4 *17:16 3.39257e-05
5 *17:10 1.51759e-05
6 *28:A *17:16 1.60115e-05
7 *1:8 *17:20 0
8 *9:40 *17:20 0
9 *9:53 *17:20 0
10 *10:8 *17:20 0
11 *10:16 *17:20 1.20741e-05
12 *11:8 *17:20 8.66267e-06
*RES
1 *28:Y *17:10 42.1426 
2 *17:10 *17:16 39.2134 
3 *17:16 *17:20 39.7266 
4 *17:20 *58:A 17.2 
*END

*D_NET *20 2.33949e-05
*CONN
*I *30:A I *D AND2x2_ASAP7_75t_R
*I *54:Y O *D BUFx3_ASAP7_75t_R
*CAP
1 *30:A 1.05244e-05
2 *54:Y 1.05244e-05
3 *9:14 *30:A 2.34603e-06
*RES
1 *54:Y *30:A 39.7482 
*END

*D_NET *21 7.90067e-05
*CONN
*I *31:B I *D AND2x2_ASAP7_75t_R
*I *55:Y O *D BUFx3_ASAP7_75t_R
*CAP
1 *31:B 0
2 *55:Y 0
3 *21:12 3.31109e-05
4 *21:6 3.31109e-05
5 *21:12 *25:8 1.21455e-06
6 *21:12 *25:41 5.79724e-07
7 *21:12 *27:8 0
8 *21:12 *27:18 0
9 *7:8 *21:12 9.94583e-06
10 *9:29 *21:12 1.04475e-06
11 *14:11 *21:12 0
*RES
1 *55:Y *21:6 34.4 
2 *21:6 *21:12 40.7963 
3 *21:12 *31:B 17.2 
*END

*D_NET *22 8.83485e-05
*CONN
*I *29:A I *D INVx1_ASAP7_75t_R
*I *56:Y O *D BUFx3_ASAP7_75t_R
*CAP
1 *29:A 0
2 *56:Y 4.23788e-06
3 *22:14 3.2821e-05
4 *22:8 3.70589e-05
5 *14:11 *22:14 0
6 *15:11 *22:14 1.42308e-05
*RES
1 *56:Y *22:8 36.0045 
2 *22:8 *22:14 39.0784 
3 *22:14 *29:A 17.2 
*END

*D_NET *23 1.11539e-05
*CONN
*I *32:B I *D AND2x2_ASAP7_75t_R
*I *57:Y O *D BUFx3_ASAP7_75t_R
*CAP
1 *32:B 5.57694e-06
2 *57:Y 5.57694e-06
*RES
1 *57:Y *32:B 36.5393 
*END

*D_NET *24 0.000176328
*CONN
*P y O
*I *58:Y O *D BUFx3_ASAP7_75t_R
*CAP
1 y 3.17991e-05
2 *58:Y 0
3 *24:12 4.45345e-05
4 *24:6 5.63649e-05
5 *24:4 4.36294e-05
*RES
1 *58:Y *24:4 17.2 
2 *24:4 *24:6 35.8333 
3 *24:6 *24:12 44.8186 
4 *24:12 y 16.5034 
*END

*D_NET *25 0.000182758
*CONN
*I *61:A I *D BUFx2_ASAP7_75t_R
*I *60:A I *D BUFx2_ASAP7_75t_R
*I *59:Y O *D BUFx2_ASAP7_75t_R
*CAP
1 *61:A 0
2 *60:A 1.95545e-06
3 *59:Y 2.43317e-06
4 *25:41 3.03802e-05
5 *25:22 4.38405e-05
6 *25:14 8.60932e-05
7 *25:8 1.62611e-05
8 *21:12 *25:8 1.21455e-06
9 *21:12 *25:41 5.79724e-07
*RES
1 *59:Y *25:8 35.9956 
2 *25:8 *25:14 33.3829 
3 *25:14 *25:22 49.3669 
4 *25:22 *60:A 35.8079 
5 *25:14 *25:41 43.8789 
6 *25:41 *61:A 34.4 
*END

*D_NET *26 0.000113428
*CONN
*I *37:CLK I *D DFFHQNx1_ASAP7_75t_R
*I *36:CLK I *D DFFHQNx1_ASAP7_75t_R
*I *60:Y O *D BUFx2_ASAP7_75t_R
*CAP
1 *37:CLK 0
2 *36:CLK 0
3 *60:Y 1.87446e-05
4 *26:23 3.39678e-05
5 *26:10 5.27124e-05
6 *37:D *26:23 8.0031e-06
*RES
1 *60:Y *26:10 44.9585 
2 *26:10 *36:CLK 34.4 
3 *26:10 *26:23 38.9331 
4 *26:23 *37:CLK 17.2 
*END

*D_NET *27 0.000137828
*CONN
*I *39:CLK I *D DFFHQNx1_ASAP7_75t_R
*I *38:CLK I *D DFFHQNx1_ASAP7_75t_R
*I *61:Y O *D BUFx2_ASAP7_75t_R
*CAP
1 *39:CLK 0
2 *38:CLK 3.30382e-05
3 *61:Y 1.4168e-05
4 *27:18 5.11484e-05
5 *27:10 1.81102e-05
6 *27:8 1.4168e-05
7 *32:A *27:18 1.02506e-06
8 *38:D *38:CLK 6.17011e-06
9 *9:53 *27:8 0
10 *21:12 *27:8 0
11 *21:12 *27:18 0
*RES
1 *61:Y *27:8 43.4107 
2 *27:8 *27:10 17.2 
3 *27:10 *27:18 44.9018 
4 *27:18 *38:CLK 34.8492 
5 *27:10 *39:CLK 17.2 
*END
