*SPEF "ieee 1481-1999"
*DESIGN "t_switch"
*DATE "00:16:44 Monday July 07, 2025"
*VENDOR "The OpenROAD Project"
*PROGRAM "OpenROAD"
*VERSION "v2.0-21872-gd51df1dea5"
*DESIGN_FLOW "NAME_SCOPE LOCAL" "PIN_CAP NONE"
*DIVIDER /
*DELIMITER :
*BUS_DELIMITER []
*T_UNIT 1 NS
*C_UNIT 1 PF
*R_UNIT 1 OHM
*L_UNIT 1 HENRY

*NAME_MAP
*1 _000_
*2 _001_
*3 _002_
*4 _003_
*5 _004_
*6 _005_
*7 _006_
*8 _007_
*9 _008_
*10 _009_
*11 _010_
*12 _011_
*13 _012_
*14 _013_
*15 _014_
*16 _015_
*17 _016_
*18 _017_
*19 _018_
*20 _019_
*21 _020_
*22 _021_
*23 _022_
*24 _023_
*25 _024_
*26 _025_
*27 _026_
*28 _027_
*29 _028_
*30 _029_
*31 _030_
*32 _031_
*33 _032_
*34 _033_
*35 _034_
*36 _035_
*37 _036_
*38 _037_
*39 _038_
*40 _039_
*41 _040_
*42 _041_
*43 _042_
*44 _043_
*45 _044_
*46 _045_
*47 _046_
*48 _047_
*49 _048_
*50 _049_
*51 _050_
*52 _051_
*53 _052_
*54 _053_
*55 _054_
*56 _055_
*57 _056_
*58 _057_
*59 _058_
*60 _059_
*61 _060_
*62 _061_
*63 _062_
*64 _063_
*65 _064_
*66 _065_
*67 _066_
*68 _067_
*69 _068_
*70 _069_
*71 _070_
*72 _071_
*73 _072_
*74 _073_
*75 _074_
*76 _075_
*77 _076_
*78 _077_
*79 _078_
*80 _079_
*81 _080_
*82 _081_
*83 _082_
*84 _083_
*85 _084_
*86 _085_
*87 _086_
*88 _087_
*89 _088_
*90 _089_
*91 _090_
*92 _091_
*93 _092_
*94 _093_
*95 _094_
*96 _095_
*97 _096_
*98 _097_
*99 _098_
*100 _099_
*101 _100_
*102 _101_
*103 _102_
*104 _103_
*105 _104_
*106 _105_
*107 _106_
*108 _107_
*109 _108_
*110 _109_
*111 _110_
*112 _111_
*113 _112_
*114 _113_
*115 _114_
*116 _115_
*117 _116_
*118 _117_
*119 _118_
*120 _119_
*121 _120_
*122 _121_
*123 _122_
*124 _123_
*125 _124_
*126 _125_
*127 _126_
*128 _127_
*129 _128_
*130 _129_
*131 _130_
*132 _131_
*133 _132_
*134 _133_
*135 _134_
*136 _135_
*137 _136_
*138 _137_
*139 _138_
*140 _139_
*141 _140_
*142 _141_
*143 _142_
*144 _143_
*145 _144_
*146 _145_
*147 _146_
*148 _147_
*149 _148_
*150 _149_
*151 _150_
*152 _151_
*153 _152_
*154 _153_
*155 _154_
*156 _155_
*157 _156_
*158 _157_
*159 _158_
*160 _159_
*161 _160_
*162 _161_
*163 _162_
*164 _163_
*165 _164_
*166 _165_
*167 _166_
*168 _167_
*169 _168_
*170 _169_
*171 _170_
*172 _171_
*173 _172_
*174 _173_
*175 _174_
*176 _175_
*177 _176_
*178 _177_
*179 _178_
*180 _179_
*181 _180_
*182 _181_
*183 _182_
*184 _183_
*185 _184_
*186 _185_
*187 _186_
*188 _187_
*189 _188_
*190 _189_
*191 _190_
*192 _191_
*193 _192_
*194 _193_
*195 _194_
*196 _195_
*197 _196_
*198 _197_
*199 _198_
*200 _199_
*201 _200_
*202 _201_
*203 _202_
*204 _203_
*205 _204_
*206 _205_
*207 _206_
*208 _207_
*209 _208_
*210 _209_
*211 _210_
*212 _211_
*213 _212_
*214 _213_
*215 _214_
*216 _215_
*217 _216_
*218 _217_
*219 _218_
*220 _219_
*221 _220_
*222 _221_
*223 _222_
*224 _223_
*225 _224_
*226 _225_
*227 _226_
*228 _227_
*229 _228_
*230 _229_
*231 _230_
*232 _231_
*233 _232_
*234 _233_
*235 _234_
*236 _235_
*237 _236_
*238 _237_
*239 _238_
*240 _239_
*241 _240_
*242 _241_
*243 _242_
*244 _243_
*245 _244_
*246 _245_
*247 _246_
*248 _247_
*249 _248_
*250 _249_
*251 _250_
*252 _251_
*253 _252_
*254 _253_
*255 _254_
*256 _255_
*257 _256_
*258 _257_
*259 _258_
*260 _259_
*261 _260_
*262 _261_
*263 _262_
*264 _263_
*265 _264_
*266 _265_
*267 _266_
*268 _267_
*269 _268_
*270 _269_
*271 _270_
*272 _271_
*273 _272_
*274 _273_
*275 _274_
*276 _275_
*277 _276_
*278 _277_
*279 _278_
*280 _279_
*281 _280_
*282 _281_
*283 _282_
*284 _283_
*285 _284_
*286 _285_
*287 _286_
*288 _287_
*289 _288_
*290 _289_
*291 _290_
*292 _291_
*293 _292_
*294 _293_
*295 _294_
*296 _295_
*297 _296_
*298 _297_
*299 _298_
*300 _299_
*301 _300_
*302 _301_
*303 _302_
*304 _303_
*305 _304_
*306 _305_
*307 _306_
*308 _307_
*309 _308_
*310 _309_
*311 _310_
*312 _311_
*313 _312_
*314 _313_
*315 _314_
*316 _315_
*317 _316_
*318 _317_
*319 _318_
*320 _319_
*321 _320_
*322 _321_
*323 _322_
*324 _323_
*325 _324_
*326 _325_
*327 _326_
*328 _327_
*329 _328_
*330 _329_
*331 _330_
*332 _331_
*333 _332_
*334 _333_
*335 _334_
*336 _335_
*337 _336_
*338 _337_
*339 _338_
*340 _339_
*341 _340_
*342 _341_
*343 _342_
*344 _343_
*345 _344_
*346 _345_
*347 _346_
*348 _347_
*349 _348_
*350 _349_
*351 _350_
*352 _351_
*353 _352_
*354 _353_
*355 _354_
*356 _355_
*357 _356_
*358 _357_
*359 _358_
*360 _359_
*361 _360_
*362 _361_
*363 _362_
*364 _363_
*365 _364_
*366 _365_
*367 _366_
*368 _367_
*369 _368_
*370 _369_
*371 _370_
*372 _371_
*373 _372_
*374 _373_
*375 _374_
*376 _375_
*377 _376_
*378 _377_
*379 _378_
*380 _379_
*381 _380_
*382 _381_
*383 _382_
*384 _383_
*385 _384_
*386 _385_
*387 _386_
*388 _387_
*389 _388_
*390 _389_
*391 _390_
*392 _391_
*393 _392_
*394 _393_
*395 _394_
*396 _395_
*397 _396_
*398 _397_
*399 _398_
*400 _399_
*401 _400_
*402 _401_
*403 _402_
*404 _403_
*405 _404_
*406 _405_
*407 _406_
*408 _407_
*409 _408_
*410 _409_
*411 _410_
*412 _411_
*413 _412_
*414 _413_
*415 _414_
*416 _415_
*417 _416_
*418 _417_
*419 _418_
*420 _419_
*421 _420_
*422 _421_
*423 _422_
*424 _423_
*425 _424_
*426 _425_
*427 _426_
*428 _427_
*429 _428_
*430 _429_
*431 _430_
*432 _431_
*433 _432_
*434 _433_
*435 _434_
*436 _435_
*437 _436_
*438 _437_
*439 _438_
*440 _439_
*441 _440_
*442 _441_
*443 _442_
*444 _443_
*445 _444_
*446 _445_
*447 _446_
*448 _447_
*449 _448_
*450 _449_
*451 _450_
*452 _451_
*453 _452_
*454 _453_
*455 _454_
*456 _455_
*457 _456_
*458 _457_
*459 _458_
*460 _459_
*461 _460_
*462 _461_
*463 _462_
*464 _463_
*465 _464_
*466 _465_
*467 _466_
*468 _467_
*469 _468_
*470 _469_
*471 _470_
*472 _471_
*473 _472_
*474 _473_
*475 _474_
*476 _475_
*477 _476_
*478 _477_
*479 _478_
*480 _479_
*481 _480_
*482 _481_
*483 _482_
*484 _483_
*485 _484_
*486 _485_
*487 _486_
*488 _487_
*489 _488_
*490 _489_
*491 _490_
*492 _491_
*493 _492_
*494 _493_
*495 clknet_0_clk
*496 ce
*497 clk
*498 net110
*499 l_i[0]
*500 l_i[10]
*501 l_i[11]
*502 l_i[12]
*503 l_i[13]
*504 l_i[14]
*505 l_i[15]
*506 l_i[16]
*507 l_i[17]
*508 l_i[18]
*509 l_i[19]
*510 l_i[1]
*511 l_i[20]
*512 l_i[21]
*513 l_i[22]
*514 l_i[23]
*515 l_i[24]
*516 l_i[25]
*517 l_i[26]
*518 l_i[27]
*519 l_i[28]
*520 l_i[29]
*521 l_i[2]
*522 l_i[30]
*523 l_i[31]
*524 l_i[32]
*525 l_i[33]
*526 l_i[34]
*527 l_i[35]
*528 l_i[36]
*529 l_i[3]
*530 l_i[4]
*531 l_i[5]
*532 l_i[6]
*533 l_i[7]
*534 l_i[8]
*535 l_i[9]
*536 net111
*537 net112
*538 net113
*539 net114
*540 net115
*541 net116
*542 net117
*543 net118
*544 net119
*545 net120
*546 net121
*547 net122
*548 net123
*549 net124
*550 net125
*551 net126
*552 net127
*553 net128
*554 net129
*555 net130
*556 net131
*557 net132
*558 net133
*559 net134
*560 net135
*561 net136
*562 net137
*563 net138
*564 l_o[35]
*565 net139
*566 net140
*567 net141
*568 net142
*569 net143
*570 net144
*571 net145
*572 net146
*573 r_i[0]
*574 r_i[10]
*575 r_i[11]
*576 r_i[12]
*577 r_i[13]
*578 r_i[14]
*579 r_i[15]
*580 r_i[16]
*581 r_i[17]
*582 r_i[18]
*583 r_i[19]
*584 r_i[1]
*585 r_i[20]
*586 r_i[21]
*587 r_i[22]
*588 r_i[23]
*589 r_i[24]
*590 r_i[25]
*591 r_i[26]
*592 r_i[27]
*593 r_i[28]
*594 r_i[29]
*595 r_i[2]
*596 r_i[30]
*597 r_i[31]
*598 r_i[32]
*599 r_i[33]
*600 r_i[34]
*601 r_i[35]
*602 r_i[36]
*603 r_i[3]
*604 r_i[4]
*605 r_i[5]
*606 r_i[6]
*607 r_i[7]
*608 r_i[8]
*609 r_i[9]
*610 net147
*611 net148
*612 net149
*613 net150
*614 net151
*615 net152
*616 net153
*617 net154
*618 net155
*619 net156
*620 net157
*621 net158
*622 net159
*623 net160
*624 net161
*625 net162
*626 net163
*627 net164
*628 net165
*629 net166
*630 net167
*631 net168
*632 net169
*633 net170
*634 net171
*635 net172
*636 net173
*637 net174
*638 r_o[35]
*639 net175
*640 net176
*641 net177
*642 net178
*643 net179
*644 net180
*645 net181
*646 net182
*647 rst
*648 u0_i[0]
*649 u0_i[10]
*650 u0_i[11]
*651 u0_i[12]
*652 u0_i[13]
*653 u0_i[14]
*654 u0_i[15]
*655 u0_i[16]
*656 u0_i[17]
*657 u0_i[18]
*658 u0_i[19]
*659 u0_i[1]
*660 u0_i[20]
*661 u0_i[21]
*662 u0_i[22]
*663 u0_i[23]
*664 u0_i[24]
*665 u0_i[25]
*666 u0_i[26]
*667 u0_i[27]
*668 u0_i[28]
*669 u0_i[29]
*670 u0_i[2]
*671 u0_i[30]
*672 u0_i[31]
*673 u0_i[32]
*674 u0_i[33]
*675 u0_i[34]
*676 u0_i[35]
*677 u0_i[36]
*678 u0_i[3]
*679 u0_i[4]
*680 u0_i[5]
*681 u0_i[6]
*682 u0_i[7]
*683 u0_i[8]
*684 u0_i[9]
*685 net183
*686 net184
*687 net185
*688 net186
*689 net187
*690 net188
*691 net189
*692 net190
*693 net191
*694 net192
*695 net193
*696 net194
*697 net195
*698 net196
*699 net197
*700 net198
*701 net199
*702 net200
*703 net201
*704 net202
*705 net203
*706 net204
*707 net205
*708 net206
*709 net207
*710 net208
*711 net209
*712 net210
*713 u0_o[35]
*714 net211
*715 net212
*716 net213
*717 net214
*718 net215
*719 net216
*720 net217
*721 net218
*724 net1
*725 net2
*726 net3
*727 net4
*728 net5
*729 net6
*730 net7
*731 net8
*732 net9
*733 net10
*734 net11
*735 net12
*736 net13
*737 net14
*738 net15
*739 net16
*740 net17
*741 net18
*742 net19
*743 net20
*744 net21
*745 net22
*746 net23
*747 net24
*748 net25
*749 net26
*750 net27
*751 net28
*752 net29
*753 net30
*754 net31
*755 net32
*756 net33
*757 net34
*758 net35
*759 net36
*760 net37
*761 net38
*762 net39
*763 net40
*764 net41
*765 net42
*766 net43
*767 net44
*768 net45
*769 net46
*770 net47
*771 net48
*772 net49
*773 net50
*774 net51
*775 net52
*776 net53
*777 net54
*778 net55
*779 net56
*780 net57
*781 net58
*782 net59
*783 net60
*784 net61
*785 net62
*786 net63
*787 net64
*788 net65
*789 net66
*790 net67
*791 net68
*792 net69
*793 net70
*794 net71
*795 net72
*796 net73
*797 net74
*798 net75
*799 net76
*800 net77
*801 net78
*802 net79
*803 net80
*804 net81
*805 net82
*806 net83
*807 net84
*808 net85
*809 net86
*810 net87
*811 net88
*812 net89
*813 net90
*814 net91
*815 net92
*816 net93
*817 net94
*818 net95
*819 net96
*820 net97
*821 net98
*822 net99
*823 net100
*824 net101
*825 net102
*826 net103
*827 net104
*828 net105
*829 net106
*830 net107
*831 net108
*832 net109
*833 done
*834 l_o[0]
*835 l_o[10]
*836 l_o[11]
*837 l_o[12]
*838 l_o[13]
*839 l_o[14]
*840 l_o[15]
*841 l_o[16]
*842 l_o[17]
*843 l_o[18]
*844 l_o[19]
*845 l_o[1]
*846 l_o[20]
*847 l_o[21]
*848 l_o[22]
*849 l_o[23]
*850 l_o[24]
*851 l_o[25]
*852 l_o[26]
*853 l_o[27]
*854 l_o[28]
*855 l_o[29]
*856 l_o[2]
*857 l_o[30]
*858 l_o[31]
*859 l_o[32]
*860 l_o[33]
*861 l_o[34]
*862 l_o[36]
*863 l_o[3]
*864 l_o[4]
*865 l_o[5]
*866 l_o[6]
*867 l_o[7]
*868 l_o[8]
*869 l_o[9]
*870 r_o[0]
*871 r_o[10]
*872 r_o[11]
*873 r_o[12]
*874 r_o[13]
*875 r_o[14]
*876 r_o[15]
*877 r_o[16]
*878 r_o[17]
*879 r_o[18]
*880 r_o[19]
*881 r_o[1]
*882 r_o[20]
*883 r_o[21]
*884 r_o[22]
*885 r_o[23]
*886 r_o[24]
*887 r_o[25]
*888 r_o[26]
*889 r_o[27]
*890 r_o[28]
*891 r_o[29]
*892 r_o[2]
*893 r_o[30]
*894 r_o[31]
*895 r_o[32]
*896 r_o[33]
*897 r_o[34]
*898 r_o[36]
*899 r_o[3]
*900 r_o[4]
*901 r_o[5]
*902 r_o[6]
*903 r_o[7]
*904 r_o[8]
*905 r_o[9]
*906 u0_o[0]
*907 u0_o[10]
*908 u0_o[11]
*909 u0_o[12]
*910 u0_o[13]
*911 u0_o[14]
*912 u0_o[15]
*913 u0_o[16]
*914 u0_o[17]
*915 u0_o[18]
*916 u0_o[19]
*917 u0_o[1]
*918 u0_o[20]
*919 u0_o[21]
*920 u0_o[22]
*921 u0_o[23]
*922 u0_o[24]
*923 u0_o[25]
*924 u0_o[26]
*925 u0_o[27]
*926 u0_o[28]
*927 u0_o[29]
*928 u0_o[2]
*929 u0_o[30]
*930 u0_o[31]
*931 u0_o[32]
*932 u0_o[33]
*933 u0_o[34]
*934 u0_o[36]
*935 u0_o[3]
*936 u0_o[4]
*937 u0_o[5]
*938 u0_o[6]
*939 u0_o[7]
*940 u0_o[8]
*941 u0_o[9]
*942 net219
*943 net220
*944 net221
*945 clknet_3_0__leaf_clk
*946 clknet_3_1__leaf_clk
*947 clknet_3_2__leaf_clk
*948 clknet_3_3__leaf_clk
*949 clknet_3_4__leaf_clk
*950 clknet_3_5__leaf_clk
*951 clknet_3_6__leaf_clk
*952 clknet_3_7__leaf_clk
*953 _495_
*954 _496_
*955 _497_
*956 _498_
*957 _499_
*958 _500_
*959 _501_
*960 _502_
*961 _503_
*962 _504_
*963 _505_
*964 _506_
*965 _507_
*966 _508_
*967 _509_
*968 _510_
*969 _511_
*970 _512_
*971 _513_
*972 _514_
*973 _515_
*974 _516_
*975 _517_
*976 _518_
*977 _519_
*978 _520_
*979 _521_
*980 _522_
*981 _523_
*982 _524_
*983 _525_
*984 _526_
*985 _527_
*986 _528_
*987 _529_
*988 _530_
*989 _531_
*990 _532_
*991 _533_
*992 _534_
*993 _535_
*994 _536_
*995 _537_
*996 _538_
*997 _539_
*998 _540_
*999 _541_
*1000 _542_
*1001 _543_
*1002 _544_
*1003 _545_
*1004 _546_
*1005 _547_
*1006 _548_
*1007 _549_
*1008 _550_
*1009 _551_
*1010 _552_
*1011 _553_
*1012 _554_
*1013 _555_
*1014 _556_
*1015 _557_
*1016 _558_
*1017 _559_
*1018 _560_
*1019 _561_
*1020 _562_
*1021 _563_
*1022 _564_
*1023 _565_
*1024 _566_
*1025 _567_
*1026 _568_
*1027 _569_
*1028 _570_
*1029 _571_
*1030 _572_
*1031 _573_
*1032 _574_
*1033 _575_
*1034 _576_
*1035 _577_
*1036 _578_
*1037 _579_
*1038 _580_
*1039 _581_
*1040 _582_
*1041 _583_
*1042 _584_
*1043 _585_
*1044 _586_
*1045 _587_
*1046 _588_
*1047 _589_
*1048 _590_
*1049 _591_
*1050 _592_
*1051 _593_
*1052 _594_
*1053 _595_
*1054 _596_
*1055 _597_
*1056 _598_
*1057 _599_
*1058 _600_
*1059 _601_
*1060 _602_
*1061 _603_
*1062 _604_
*1063 _605_
*1064 _606_
*1065 _607_
*1066 _608_
*1067 _609_
*1068 _610_
*1069 _611_
*1070 _612_
*1071 _613_
*1072 _614_
*1073 _615_
*1074 _616_
*1075 _617_
*1076 _618_
*1077 _619_
*1078 _620_
*1079 _621_
*1080 _622_
*1081 _623_
*1082 _624_
*1083 _625_
*1084 _626_
*1085 _627_
*1086 _628_
*1087 _629_
*1088 _630_
*1089 _631_
*1090 _632_
*1091 _633_
*1092 _634_
*1093 _635_
*1094 _636_
*1095 _637_
*1096 _638_
*1097 _639_
*1098 _640_
*1099 _641_
*1100 _642_
*1101 _643_
*1102 _644_
*1103 _645_
*1104 _646_
*1105 _647_
*1106 _648_
*1107 _649_
*1108 _650_
*1109 _651_
*1110 _652_
*1111 _653_
*1112 _654_
*1113 _655_
*1114 _656_
*1115 _657_
*1116 _658_
*1117 _659_
*1118 _660_
*1119 _661_
*1120 _662_
*1121 _663_
*1122 _664_
*1123 _665_
*1124 _666_
*1125 _667_
*1126 _668_
*1127 _669_
*1128 _670_
*1129 _671_
*1130 _672_
*1131 _673_
*1132 _674_
*1133 _675_
*1134 _676_
*1135 _677_
*1136 _678_
*1137 _679_
*1138 _680_
*1139 _681_
*1140 _682_
*1141 _683_
*1142 _684_
*1143 _685_
*1144 _686_
*1145 _687_
*1146 _688_
*1147 _689_
*1148 _690_
*1149 _691_
*1150 _692_
*1151 _693_
*1152 _694_
*1153 _695_
*1154 _696_
*1155 _697_
*1156 _698_
*1157 _699_
*1158 _700_
*1159 _701_
*1160 _702_
*1161 _703_
*1162 _704_
*1163 _705_
*1164 _706_
*1165 _707_
*1166 _708_
*1167 _709_
*1168 _710_
*1169 _711_
*1170 _712_
*1171 _713_
*1172 _714_
*1173 _715_
*1174 _716_
*1175 _717_
*1176 _718_
*1177 _719_
*1178 _720_
*1179 _721_
*1180 _722_
*1181 _723_
*1182 _724_
*1183 _725_
*1184 _726_
*1185 _727_
*1186 _728_
*1187 _729_
*1188 _730_
*1189 _731_
*1190 _732_
*1191 _733_
*1192 _734_
*1193 _735_
*1194 _736_
*1195 _737_
*1196 _738_
*1197 _739_
*1198 _740_
*1199 _741_
*1200 _742_
*1201 _743_
*1202 _744_
*1203 _745_
*1204 _746_
*1205 _747_
*1206 _748_
*1207 _749_
*1208 _750_
*1209 _751_
*1210 _752_
*1211 _753_
*1212 _754_
*1213 _755_
*1214 _756_
*1215 _757_
*1216 _758_
*1217 _759_
*1218 _760_
*1219 _761_
*1220 _762_
*1221 _763_
*1222 _764_
*1223 _765_
*1224 _766_
*1225 _767_
*1226 _768_
*1227 _769_
*1228 _770_
*1229 _771_
*1230 _772_
*1231 _773_
*1232 _774_
*1233 _775_
*1234 _776_
*1235 _777_
*1236 _778_
*1237 _779_
*1238 _780_
*1239 _781_
*1240 _782_
*1241 _783_
*1242 _784_
*1243 _785_
*1244 _786_
*1245 _787_
*1246 _788_
*1247 _789_
*1248 _790_
*1249 _791_
*1250 _792_
*1251 _793_
*1252 _794_
*1253 _795_
*1254 _796_
*1255 _797_
*1256 _798_
*1257 _799_
*1258 _800_
*1259 _801_
*1260 _802_
*1261 _803_
*1262 _804_
*1263 _805_
*1264 _806_
*1265 _807_
*1266 _808_
*1267 _809_
*1268 _810_
*1269 _811_
*1270 _812_
*1271 _813_
*1272 _814_
*1273 _815_
*1274 _816_
*1275 _817_
*1276 _818_
*1277 _819_
*1278 _820_
*1279 _821_
*1280 _822_
*1281 _823_
*1282 _824_
*1283 _825_
*1284 _826_
*1285 _827_
*1286 _828_
*1287 _829_
*1288 _830_
*1289 _831_
*1290 _832_
*1291 _833_
*1292 _834_
*1293 _835_
*1294 _836_
*1295 _837_
*1296 _838_
*1297 _839_
*1298 _840_
*1299 _841_
*1300 _842_
*1301 _843_
*1302 _844_
*1303 _845_
*1304 _846_
*1305 _847_
*1306 _848_
*1307 _849_
*1308 _850_
*1309 _851_
*1310 _852_
*1311 _853_
*1312 _854_
*1313 _855_
*1314 _856_
*1315 _857_
*1316 _858_
*1317 _859_
*1318 _860_
*1319 _861_
*1320 _862_
*1321 _863_
*1322 _864_
*1323 _865_
*1324 _866_
*1325 _867_
*1326 _868_
*1327 _869_
*1328 _870_
*1329 _871_
*1330 _872_
*1331 _873_
*1332 _874_
*1333 _875_
*1334 _876_
*1335 _877_
*1336 _878_
*1337 _879_
*1338 _880_
*1339 _881_
*1340 _882_
*1341 _883_
*1342 _884_
*1343 _885_
*1344 _886_
*1345 _887_
*1346 _888_
*1347 _889_
*1348 _890_
*1349 _891_
*1350 _892_
*1351 _893_
*1352 _894_
*1353 _895_
*1354 _896_
*1355 _897_
*1356 _898_
*1357 _899_
*1358 _900_
*1359 _901_
*1360 _902_
*1361 _903_
*1362 _904_
*1363 _905_
*1364 _906_
*1365 _907_
*1366 _908_
*1367 _909_
*1368 _910_
*1369 _911_
*1370 _912_
*1371 _913_
*1372 _914_
*1373 _915_
*1374 _916_
*1375 _917_
*1376 _918_
*1377 _919_
*1378 _920_
*1379 _921_
*1380 _922_
*1381 _923_
*1382 _924_
*1383 _925_
*1384 _926_
*1385 _927_
*1386 _928_
*1387 _929_
*1388 _930_
*1389 _931_
*1390 _932_
*1391 _933_
*1392 _934_
*1393 _935_
*1394 _936_
*1395 _937_
*1396 _938_
*1397 _939_
*1398 _940_
*1399 _941_
*1400 _942_
*1401 _943_
*1402 _944_
*1403 _945_
*1404 _946_
*1405 _947_
*1406 _948_
*1407 _949_
*1408 _950_
*1409 _951_
*1410 _952_
*1411 _953_
*1412 _954_
*1413 _955_
*1414 _956_
*1415 _957_
*1416 _958_
*1417 _959_
*1418 _960_
*1419 _961_
*1420 _962_
*1421 _963_
*1422 _964_
*1423 _965_
*1424 _966_
*1425 _967_
*1426 _968_
*1427 _969_
*1428 _970_
*1429 _971_
*1430 _972_
*1431 _973_
*1432 _974_
*1433 _975_
*1434 _976_
*1435 _977_
*1436 _978_
*1437 _979_
*1438 _980_
*1439 _981_
*1440 _982_
*1441 _983_
*1442 _984_
*1443 _985_
*1444 _986_
*1445 _987_
*1446 _988_
*1447 clkbuf_0_clk
*1448 _990_
*1449 _991_
*1450 _992_
*1451 done_sig\$_DFF_P_
*1452 l_o_r\[0\]\$_SDFF_PP0_
*1453 l_o_r\[10\]\$_SDFF_PP0_
*1454 l_o_r\[11\]\$_SDFF_PP0_
*1455 l_o_r\[12\]\$_SDFF_PP0_
*1456 l_o_r\[13\]\$_SDFF_PP0_
*1457 l_o_r\[14\]\$_SDFF_PP0_
*1458 l_o_r\[15\]\$_SDFF_PP0_
*1459 l_o_r\[16\]\$_SDFF_PP0_
*1460 l_o_r\[17\]\$_SDFF_PP0_
*1461 l_o_r\[18\]\$_SDFF_PP0_
*1462 l_o_r\[19\]\$_SDFF_PP0_
*1463 l_o_r\[1\]\$_SDFF_PP0_
*1464 l_o_r\[20\]\$_SDFF_PP0_
*1465 l_o_r\[21\]\$_SDFF_PP0_
*1466 l_o_r\[22\]\$_SDFF_PP0_
*1467 l_o_r\[23\]\$_SDFF_PP0_
*1468 l_o_r\[24\]\$_SDFF_PP0_
*1469 l_o_r\[25\]\$_SDFF_PP0_
*1470 l_o_r\[26\]\$_SDFF_PP0_
*1471 l_o_r\[27\]\$_SDFF_PP0_
*1472 l_o_r\[28\]\$_SDFF_PP0_
*1473 l_o_r\[29\]\$_SDFF_PP0_
*1474 l_o_r\[2\]\$_SDFF_PP0_
*1475 l_o_r\[30\]\$_SDFF_PP0_
*1476 l_o_r\[31\]\$_SDFF_PP0_
*1477 l_o_r\[32\]\$_SDFF_PP0_
*1478 l_o_r\[33\]\$_SDFF_PP0_
*1479 l_o_r\[34\]\$_SDFF_PP0_
*1480 l_o_r\[36\]\$_SDFF_PP0_
*1481 l_o_r\[3\]\$_SDFF_PP0_
*1482 l_o_r\[4\]\$_SDFF_PP0_
*1483 l_o_r\[5\]\$_SDFF_PP0_
*1484 l_o_r\[6\]\$_SDFF_PP0_
*1485 l_o_r\[7\]\$_SDFF_PP0_
*1486 l_o_r\[8\]\$_SDFF_PP0_
*1487 l_o_r\[9\]\$_SDFF_PP0_
*1488 r_o_r\[0\]\$_SDFF_PP0_
*1489 r_o_r\[10\]\$_SDFF_PP0_
*1490 r_o_r\[11\]\$_SDFF_PP0_
*1491 r_o_r\[12\]\$_SDFF_PP0_
*1492 r_o_r\[13\]\$_SDFF_PP0_
*1493 r_o_r\[14\]\$_SDFF_PP0_
*1494 r_o_r\[15\]\$_SDFF_PP0_
*1495 r_o_r\[16\]\$_SDFF_PP0_
*1496 r_o_r\[17\]\$_SDFF_PP0_
*1497 r_o_r\[18\]\$_SDFF_PP0_
*1498 r_o_r\[19\]\$_SDFF_PP0_
*1499 r_o_r\[1\]\$_SDFF_PP0_
*1500 r_o_r\[20\]\$_SDFF_PP0_
*1501 r_o_r\[21\]\$_SDFF_PP0_
*1502 r_o_r\[22\]\$_SDFF_PP0_
*1503 r_o_r\[23\]\$_SDFF_PP0_
*1504 r_o_r\[24\]\$_SDFF_PP0_
*1505 r_o_r\[25\]\$_SDFF_PP0_
*1506 r_o_r\[26\]\$_SDFF_PP0_
*1507 r_o_r\[27\]\$_SDFF_PP0_
*1508 r_o_r\[28\]\$_SDFF_PP0_
*1509 r_o_r\[29\]\$_SDFF_PP0_
*1510 r_o_r\[2\]\$_SDFF_PP0_
*1511 r_o_r\[30\]\$_SDFF_PP0_
*1512 r_o_r\[31\]\$_SDFF_PP0_
*1513 r_o_r\[32\]\$_SDFF_PP0_
*1514 r_o_r\[33\]\$_SDFF_PP0_
*1515 r_o_r\[34\]\$_SDFF_PP0_
*1516 r_o_r\[36\]\$_SDFF_PP0_
*1517 r_o_r\[3\]\$_SDFF_PP0_
*1518 r_o_r\[4\]\$_SDFF_PP0_
*1519 r_o_r\[5\]\$_SDFF_PP0_
*1520 r_o_r\[6\]\$_SDFF_PP0_
*1521 r_o_r\[7\]\$_SDFF_PP0_
*1522 r_o_r\[8\]\$_SDFF_PP0_
*1523 r_o_r\[9\]\$_SDFF_PP0_
*1524 u0_o_r\[0\]\$_SDFF_PP0_
*1525 u0_o_r\[10\]\$_SDFF_PP0_
*1526 u0_o_r\[11\]\$_SDFF_PP0_
*1527 u0_o_r\[12\]\$_SDFF_PP0_
*1528 u0_o_r\[13\]\$_SDFF_PP0_
*1529 u0_o_r\[14\]\$_SDFF_PP0_
*1530 u0_o_r\[15\]\$_SDFF_PP0_
*1531 u0_o_r\[16\]\$_SDFF_PP0_
*1532 u0_o_r\[17\]\$_SDFF_PP0_
*1533 u0_o_r\[18\]\$_SDFF_PP0_
*1534 u0_o_r\[19\]\$_SDFF_PP0_
*1535 u0_o_r\[1\]\$_SDFF_PP0_
*1536 u0_o_r\[20\]\$_SDFF_PP0_
*1537 u0_o_r\[21\]\$_SDFF_PP0_
*1538 u0_o_r\[22\]\$_SDFF_PP0_
*1539 u0_o_r\[23\]\$_SDFF_PP0_
*1540 u0_o_r\[24\]\$_SDFF_PP0_
*1541 u0_o_r\[25\]\$_SDFF_PP0_
*1542 u0_o_r\[26\]\$_SDFF_PP0_
*1543 u0_o_r\[27\]\$_SDFF_PP0_
*1544 u0_o_r\[28\]\$_SDFF_PP0_
*1545 u0_o_r\[29\]\$_SDFF_PP0_
*1546 u0_o_r\[2\]\$_SDFF_PP0_
*1547 u0_o_r\[30\]\$_SDFF_PP0_
*1548 u0_o_r\[31\]\$_SDFF_PP0_
*1549 u0_o_r\[32\]\$_SDFF_PP0_
*1550 u0_o_r\[33\]\$_SDFF_PP0_
*1551 u0_o_r\[34\]\$_SDFF_PP0_
*1552 u0_o_r\[36\]\$_SDFF_PP0_
*1553 u0_o_r\[3\]\$_SDFF_PP0_
*1554 u0_o_r\[4\]\$_SDFF_PP0_
*1555 u0_o_r\[5\]\$_SDFF_PP0_
*1556 u0_o_r\[6\]\$_SDFF_PP0_
*1557 u0_o_r\[7\]\$_SDFF_PP0_
*1558 u0_o_r\[8\]\$_SDFF_PP0_
*1559 u0_o_r\[9\]\$_SDFF_PP0_
*1560 PHY_EDGE_ROW_0_Right_0
*1561 PHY_EDGE_ROW_1_Right_1
*1562 PHY_EDGE_ROW_2_Right_2
*1563 PHY_EDGE_ROW_3_Right_3
*1564 PHY_EDGE_ROW_4_Right_4
*1565 PHY_EDGE_ROW_5_Right_5
*1566 PHY_EDGE_ROW_6_Right_6
*1567 PHY_EDGE_ROW_7_Right_7
*1568 PHY_EDGE_ROW_8_Right_8
*1569 PHY_EDGE_ROW_9_Right_9
*1570 PHY_EDGE_ROW_10_Right_10
*1571 PHY_EDGE_ROW_11_Right_11
*1572 PHY_EDGE_ROW_12_Right_12
*1573 PHY_EDGE_ROW_13_Right_13
*1574 PHY_EDGE_ROW_14_Right_14
*1575 PHY_EDGE_ROW_15_Right_15
*1576 PHY_EDGE_ROW_16_Right_16
*1577 PHY_EDGE_ROW_17_Right_17
*1578 PHY_EDGE_ROW_18_Right_18
*1579 PHY_EDGE_ROW_19_Right_19
*1580 PHY_EDGE_ROW_20_Right_20
*1581 PHY_EDGE_ROW_21_Right_21
*1582 PHY_EDGE_ROW_22_Right_22
*1583 PHY_EDGE_ROW_23_Right_23
*1584 PHY_EDGE_ROW_24_Right_24
*1585 PHY_EDGE_ROW_25_Right_25
*1586 PHY_EDGE_ROW_26_Right_26
*1587 PHY_EDGE_ROW_27_Right_27
*1588 PHY_EDGE_ROW_28_Right_28
*1589 PHY_EDGE_ROW_29_Right_29
*1590 PHY_EDGE_ROW_30_Right_30
*1591 PHY_EDGE_ROW_31_Right_31
*1592 PHY_EDGE_ROW_32_Right_32
*1593 PHY_EDGE_ROW_33_Right_33
*1594 PHY_EDGE_ROW_34_Right_34
*1595 PHY_EDGE_ROW_35_Right_35
*1596 PHY_EDGE_ROW_36_Right_36
*1597 PHY_EDGE_ROW_37_Right_37
*1598 PHY_EDGE_ROW_38_Right_38
*1599 PHY_EDGE_ROW_39_Right_39
*1600 PHY_EDGE_ROW_40_Right_40
*1601 PHY_EDGE_ROW_41_Right_41
*1602 PHY_EDGE_ROW_42_Right_42
*1603 PHY_EDGE_ROW_43_Right_43
*1604 PHY_EDGE_ROW_44_Right_44
*1605 PHY_EDGE_ROW_45_Right_45
*1606 PHY_EDGE_ROW_46_Right_46
*1607 PHY_EDGE_ROW_47_Right_47
*1608 PHY_EDGE_ROW_0_Left_48
*1609 PHY_EDGE_ROW_1_Left_49
*1610 PHY_EDGE_ROW_2_Left_50
*1611 PHY_EDGE_ROW_3_Left_51
*1612 PHY_EDGE_ROW_4_Left_52
*1613 PHY_EDGE_ROW_5_Left_53
*1614 PHY_EDGE_ROW_6_Left_54
*1615 PHY_EDGE_ROW_7_Left_55
*1616 PHY_EDGE_ROW_8_Left_56
*1617 PHY_EDGE_ROW_9_Left_57
*1618 PHY_EDGE_ROW_10_Left_58
*1619 PHY_EDGE_ROW_11_Left_59
*1620 PHY_EDGE_ROW_12_Left_60
*1621 PHY_EDGE_ROW_13_Left_61
*1622 PHY_EDGE_ROW_14_Left_62
*1623 PHY_EDGE_ROW_15_Left_63
*1624 PHY_EDGE_ROW_16_Left_64
*1625 PHY_EDGE_ROW_17_Left_65
*1626 PHY_EDGE_ROW_18_Left_66
*1627 PHY_EDGE_ROW_19_Left_67
*1628 PHY_EDGE_ROW_20_Left_68
*1629 PHY_EDGE_ROW_21_Left_69
*1630 PHY_EDGE_ROW_22_Left_70
*1631 PHY_EDGE_ROW_23_Left_71
*1632 PHY_EDGE_ROW_24_Left_72
*1633 PHY_EDGE_ROW_25_Left_73
*1634 PHY_EDGE_ROW_26_Left_74
*1635 PHY_EDGE_ROW_27_Left_75
*1636 PHY_EDGE_ROW_28_Left_76
*1637 PHY_EDGE_ROW_29_Left_77
*1638 PHY_EDGE_ROW_30_Left_78
*1639 PHY_EDGE_ROW_31_Left_79
*1640 PHY_EDGE_ROW_32_Left_80
*1641 PHY_EDGE_ROW_33_Left_81
*1642 PHY_EDGE_ROW_34_Left_82
*1643 PHY_EDGE_ROW_35_Left_83
*1644 PHY_EDGE_ROW_36_Left_84
*1645 PHY_EDGE_ROW_37_Left_85
*1646 PHY_EDGE_ROW_38_Left_86
*1647 PHY_EDGE_ROW_39_Left_87
*1648 PHY_EDGE_ROW_40_Left_88
*1649 PHY_EDGE_ROW_41_Left_89
*1650 PHY_EDGE_ROW_42_Left_90
*1651 PHY_EDGE_ROW_43_Left_91
*1652 PHY_EDGE_ROW_44_Left_92
*1653 PHY_EDGE_ROW_45_Left_93
*1654 PHY_EDGE_ROW_46_Left_94
*1655 PHY_EDGE_ROW_47_Left_95
*1656 input1
*1657 input2
*1658 input3
*1659 input4
*1660 input5
*1661 input6
*1662 input7
*1663 input8
*1664 input9
*1665 input10
*1666 input11
*1667 input12
*1668 input13
*1669 input14
*1670 input15
*1671 input16
*1672 input17
*1673 input18
*1674 input19
*1675 input20
*1676 input21
*1677 input22
*1678 input23
*1679 input24
*1680 input25
*1681 input26
*1682 input27
*1683 input28
*1684 input29
*1685 input30
*1686 input31
*1687 input32
*1688 input33
*1689 input34
*1690 input35
*1691 input36
*1692 input37
*1693 input38
*1694 input39
*1695 input40
*1696 input41
*1697 input42
*1698 input43
*1699 input44
*1700 input45
*1701 input46
*1702 input47
*1703 input48
*1704 input49
*1705 input50
*1706 input51
*1707 input52
*1708 input53
*1709 input54
*1710 input55
*1711 input56
*1712 input57
*1713 input58
*1714 input59
*1715 input60
*1716 input61
*1717 input62
*1718 input63
*1719 input64
*1720 input65
*1721 input66
*1722 input67
*1723 input68
*1724 input69
*1725 input70
*1726 input71
*1727 input72
*1728 input73
*1729 input74
*1730 input75
*1731 input76
*1732 input77
*1733 input78
*1734 input79
*1735 input80
*1736 input81
*1737 input82
*1738 input83
*1739 input84
*1740 input85
*1741 input86
*1742 input87
*1743 input88
*1744 input89
*1745 input90
*1746 input91
*1747 input92
*1748 input93
*1749 input94
*1750 input95
*1751 input96
*1752 input97
*1753 input98
*1754 input99
*1755 input100
*1756 input101
*1757 input102
*1758 input103
*1759 input104
*1760 input105
*1761 input106
*1762 input107
*1763 input108
*1764 input109
*1765 output110
*1766 output111
*1767 output112
*1768 output113
*1769 output114
*1770 output115
*1771 output116
*1772 output117
*1773 output118
*1774 output119
*1775 output120
*1776 output121
*1777 output122
*1778 output123
*1779 output124
*1780 output125
*1781 output126
*1782 output127
*1783 output128
*1784 output129
*1785 output130
*1786 output131
*1787 output132
*1788 output133
*1789 output134
*1790 output135
*1791 output136
*1792 output137
*1793 output138
*1794 output139
*1795 output140
*1796 output141
*1797 output142
*1798 output143
*1799 output144
*1800 output145
*1801 output146
*1802 output147
*1803 output148
*1804 output149
*1805 output150
*1806 output151
*1807 output152
*1808 output153
*1809 output154
*1810 output155
*1811 output156
*1812 output157
*1813 output158
*1814 output159
*1815 output160
*1816 output161
*1817 output162
*1818 output163
*1819 output164
*1820 output165
*1821 output166
*1822 output167
*1823 output168
*1824 output169
*1825 output170
*1826 output171
*1827 output172
*1828 output173
*1829 output174
*1830 output175
*1831 output176
*1832 output177
*1833 output178
*1834 output179
*1835 output180
*1836 output181
*1837 output182
*1838 output183
*1839 output184
*1840 output185
*1841 output186
*1842 output187
*1843 output188
*1844 output189
*1845 output190
*1846 output191
*1847 output192
*1848 output193
*1849 output194
*1850 output195
*1851 output196
*1852 output197
*1853 output198
*1854 output199
*1855 output200
*1856 output201
*1857 output202
*1858 output203
*1859 output204
*1860 output205
*1861 output206
*1862 output207
*1863 output208
*1864 output209
*1865 output210
*1866 output211
*1867 output212
*1868 output213
*1869 output214
*1870 output215
*1871 output216
*1872 output217
*1873 output218
*1874 _990__219
*1875 _991__220
*1876 _992__221
*1877 clkbuf_3_0__f_clk
*1878 clkbuf_3_1__f_clk
*1879 clkbuf_3_2__f_clk
*1880 clkbuf_3_3__f_clk
*1881 clkbuf_3_4__f_clk
*1882 clkbuf_3_5__f_clk
*1883 clkbuf_3_6__f_clk
*1884 clkbuf_3_7__f_clk
*1885 clkload0
*1886 clkload1
*1887 clkload2
*1888 clkload3
*1889 clkload4
*1890 clkload5
*1891 clkload6
*1892 FILLER_0_2
*1893 FILLER_0_24
*1894 FILLER_0_30
*1895 FILLER_0_36
*1896 FILLER_0_46
*1897 FILLER_0_48
*1898 FILLER_0_55
*1899 FILLER_0_57
*1900 FILLER_0_64
*1901 FILLER_0_68
*1902 FILLER_0_130
*1903 FILLER_0_215
*1904 FILLER_0_237
*1905 FILLER_0_243
*1906 FILLER_1_2
*1907 FILLER_1_24
*1908 FILLER_1_37
*1909 FILLER_1_51
*1910 FILLER_1_57
*1911 FILLER_1_127
*1912 FILLER_1_155
*1913 FILLER_1_214
*1914 FILLER_1_236
*1915 FILLER_1_242
*1916 FILLER_2_2
*1917 FILLER_2_16
*1918 FILLER_2_22
*1919 FILLER_2_31
*1920 FILLER_2_45
*1921 FILLER_2_132
*1922 FILLER_2_206
*1923 FILLER_2_211
*1924 FILLER_2_233
*1925 FILLER_2_243
*1926 FILLER_3_2
*1927 FILLER_3_24
*1928 FILLER_3_69
*1929 FILLER_3_73
*1930 FILLER_3_83
*1931 FILLER_3_89
*1932 FILLER_3_122
*1933 FILLER_3_124
*1934 FILLER_3_169
*1935 FILLER_3_211
*1936 FILLER_3_233
*1937 FILLER_3_243
*1938 FILLER_4_2
*1939 FILLER_4_24
*1940 FILLER_4_66
*1941 FILLER_4_80
*1942 FILLER_4_96
*1943 FILLER_4_109
*1944 FILLER_4_126
*1945 FILLER_4_148
*1946 FILLER_4_167
*1947 FILLER_4_171
*1948 FILLER_4_187
*1949 FILLER_4_207
*1950 FILLER_4_229
*1951 FILLER_4_243
*1952 FILLER_5_2
*1953 FILLER_5_24
*1954 FILLER_5_38
*1955 FILLER_5_44
*1956 FILLER_5_51
*1957 FILLER_5_73
*1958 FILLER_5_95
*1959 FILLER_5_99
*1960 FILLER_5_155
*1961 FILLER_5_169
*1962 FILLER_5_185
*1963 FILLER_5_207
*1964 FILLER_5_229
*1965 FILLER_5_243
*1966 FILLER_6_2
*1967 FILLER_6_24
*1968 FILLER_6_46
*1969 FILLER_6_76
*1970 FILLER_6_80
*1971 FILLER_6_102
*1972 FILLER_6_162
*1973 FILLER_6_168
*1974 FILLER_6_187
*1975 FILLER_6_197
*1976 FILLER_6_199
*1977 FILLER_6_220
*1978 FILLER_6_229
*1979 FILLER_6_231
*1980 FILLER_6_238
*1981 FILLER_7_2
*1982 FILLER_7_24
*1983 FILLER_7_29
*1984 FILLER_7_51
*1985 FILLER_7_63
*1986 FILLER_7_102
*1987 FILLER_7_108
*1988 FILLER_7_116
*1989 FILLER_7_130
*1990 FILLER_7_139
*1991 FILLER_7_169
*1992 FILLER_7_171
*1993 FILLER_7_209
*1994 FILLER_7_215
*1995 FILLER_7_220
*1996 FILLER_7_222
*1997 FILLER_7_232
*1998 FILLER_7_236
*1999 FILLER_7_243
*2000 FILLER_8_2
*2001 FILLER_8_12
*2002 FILLER_8_103
*2003 FILLER_8_117
*2004 FILLER_8_135
*2005 FILLER_8_149
*2006 FILLER_8_164
*2007 FILLER_8_171
*2008 FILLER_8_180
*2009 FILLER_8_208
*2010 FILLER_8_230
*2011 FILLER_9_2
*2012 FILLER_9_24
*2013 FILLER_9_45
*2014 FILLER_9_87
*2015 FILLER_9_101
*2016 FILLER_9_123
*2017 FILLER_9_137
*2018 FILLER_9_139
*2019 FILLER_9_146
*2020 FILLER_9_156
*2021 FILLER_9_200
*2022 FILLER_9_222
*2023 FILLER_10_8
*2024 FILLER_10_22
*2025 FILLER_10_24
*2026 FILLER_10_51
*2027 FILLER_10_60
*2028 FILLER_10_64
*2029 FILLER_10_85
*2030 FILLER_10_107
*2031 FILLER_10_118
*2032 FILLER_10_128
*2033 FILLER_10_130
*2034 FILLER_10_137
*2035 FILLER_10_164
*2036 FILLER_10_186
*2037 FILLER_10_200
*2038 FILLER_10_222
*2039 FILLER_10_232
*2040 FILLER_10_240
*2041 FILLER_11_14
*2042 FILLER_11_26
*2043 FILLER_11_33
*2044 FILLER_11_41
*2045 FILLER_11_49
*2046 FILLER_11_69
*2047 FILLER_11_79