*SPEF "ieee 1481-1999"
*DESIGN "t_switch"
*DATE "01:31:52 Monday July 07, 2025"
*VENDOR "The OpenROAD Project"
*PROGRAM "OpenROAD"
*VERSION "v2.0-21872-gd51df1dea5"
*DESIGN_FLOW "NAME_SCOPE LOCAL" "PIN_CAP NONE"
*DIVIDER /
*DELIMITER :
*BUS_DELIMITER []
*T_UNIT 1 NS
*C_UNIT 1 PF
*R_UNIT 1 OHM
*L_UNIT 1 HENRY

*NAME_MAP
*1 _0000_
*2 _0001_
*3 _0002_
*4 _0003_
*5 _0004_
*6 _0005_
*7 _0006_
*8 _0007_
*9 _0008_
*10 _0009_
*11 _0010_
*12 _0011_
*13 _0012_
*14 _0013_
*15 _0014_
*16 _0015_
*17 _0016_
*18 _0017_
*19 _0018_
*20 _0019_
*21 _0020_
*22 _0021_
*23 _0022_
*24 _0023_
*25 _0024_
*26 _0025_
*27 _0026_
*28 _0027_
*29 _0028_
*30 _0029_
*31 _0030_
*32 _0031_
*33 _0032_
*34 _0033_
*35 _0034_
*36 _0035_
*37 _0036_
*38 _0037_
*39 _0038_
*40 _0039_
*41 _0040_
*42 _0041_
*43 _0042_
*44 _0043_
*45 _0044_
*46 _0045_
*47 _0046_
*48 _0047_
*49 _0048_
*50 _0049_
*51 _0050_
*52 _0051_
*53 _0052_
*54 _0053_
*55 _0054_
*56 _0055_
*57 _0056_
*58 _0057_
*59 _0058_
*60 _0059_
*61 _0060_
*62 _0061_
*63 _0062_
*64 _0063_
*65 _0064_
*66 _0065_
*67 _0066_
*68 _0067_
*69 _0068_
*70 _0069_
*71 _0070_
*72 _0071_
*73 _0072_
*74 _0073_
*75 _0074_
*76 _0075_
*77 _0076_
*78 _0077_
*79 _0078_
*80 _0079_
*81 _0080_
*82 _0081_
*83 _0082_
*84 _0083_
*85 _0084_
*86 _0085_
*87 _0086_
*88 _0087_
*89 _0088_
*90 _0089_
*91 _0090_
*92 _0091_
*93 _0092_
*94 _0093_
*95 _0094_
*96 _0095_
*97 _0096_
*98 _0097_
*99 _0098_
*100 _0099_
*101 _0100_
*102 _0101_
*103 _0102_
*104 _0103_
*105 _0104_
*106 _0105_
*107 _0106_
*108 _0107_
*109 _0108_
*110 _0109_
*111 _0110_
*112 _0111_
*113 _0112_
*114 _0113_
*115 _0114_
*116 _0115_
*117 _0116_
*118 _0117_
*119 _0118_
*120 _0119_
*121 _0120_
*122 _0121_
*123 _0122_
*124 _0123_
*125 _0124_
*126 _0125_
*127 _0126_
*128 _0127_
*129 _0128_
*130 _0129_
*131 _0130_
*132 _0131_
*133 _0132_
*134 _0133_
*135 _0134_
*136 _0135_
*137 _0136_
*138 _0137_
*139 _0138_
*140 _0139_
*141 _0140_
*142 _0141_
*143 _0142_
*144 _0143_
*145 _0144_
*146 _0145_
*147 _0146_
*148 _0147_
*149 _0148_
*150 _0149_
*151 _0150_
*152 _0151_
*153 _0152_
*154 _0153_
*155 _0154_
*156 _0155_
*157 _0156_
*158 _0157_
*159 _0158_
*160 _0159_
*161 _0160_
*162 _0161_
*163 _0162_
*164 _0163_
*165 _0164_
*166 _0165_
*167 _0166_
*168 _0167_
*169 _0168_
*170 _0169_
*171 _0170_
*172 _0171_
*173 _0172_
*174 _0173_
*175 _0174_
*176 _0175_
*177 _0176_
*178 _0177_
*179 _0178_
*180 _0179_
*181 _0180_
*182 _0181_
*183 _0182_
*184 _0183_
*185 _0184_
*186 _0185_
*187 _0186_
*188 _0187_
*189 _0188_
*190 _0189_
*191 _0190_
*192 _0191_
*193 _0192_
*194 _0193_
*195 _0194_
*196 _0195_
*197 _0196_
*198 _0197_
*199 _0198_
*200 _0199_
*201 _0200_
*202 _0201_
*203 _0202_
*204 _0203_
*205 _0204_
*206 _0205_
*207 _0206_
*208 _0207_
*209 _0208_
*210 _0209_
*211 _0210_
*212 _0211_
*213 _0212_
*214 _0213_
*215 _0214_
*216 _0215_
*217 _0216_
*218 _0217_
*219 _0218_
*220 _0219_
*221 _0220_
*222 _0221_
*223 _0222_
*224 _0223_
*225 _0224_
*226 _0225_
*227 _0226_
*228 _0227_
*229 _0228_
*230 _0229_
*231 _0230_
*232 _0231_
*233 _0232_
*234 _0233_
*235 _0234_
*236 _0235_
*237 _0236_
*238 _0237_
*239 _0238_
*240 _0239_
*241 _0240_
*242 _0241_
*243 _0242_
*244 _0243_
*245 _0244_
*246 _0245_
*247 _0246_
*248 _0247_
*249 _0248_
*250 _0249_
*251 _0250_
*252 _0251_
*253 _0252_
*254 _0253_
*255 _0254_
*256 _0255_
*257 _0256_
*258 _0257_
*259 _0258_
*260 _0259_
*261 _0260_
*262 _0261_
*263 _0262_
*264 _0263_
*265 _0264_
*266 _0265_
*267 _0266_
*268 _0267_
*269 _0268_
*270 _0269_
*271 _0270_
*272 _0271_
*273 _0272_
*274 _0273_
*275 _0274_
*276 _0275_
*277 _0276_
*278 _0277_
*279 _0278_
*280 _0279_
*281 _0280_
*282 _0281_
*283 _0282_
*284 _0283_
*285 _0284_
*286 _0285_
*287 _0286_
*288 _0287_
*289 _0288_
*290 _0289_
*291 _0290_
*292 _0291_
*293 _0292_
*294 _0293_
*295 _0294_
*296 _0295_
*297 _0296_
*298 _0297_
*299 _0298_
*300 _0299_
*301 _0300_
*302 _0301_
*303 _0302_
*304 _0303_
*305 _0304_
*306 _0305_
*307 _0306_
*308 _0307_
*309 _0308_
*310 _0309_
*311 _0310_
*312 _0311_
*313 _0312_
*314 _0313_
*315 _0314_
*316 _0315_
*317 _0316_
*318 _0317_
*319 _0318_
*320 _0319_
*321 _0320_
*322 _0321_
*323 _0322_
*324 _0323_
*325 _0324_
*326 _0325_
*327 _0326_
*328 _0327_
*329 _0328_
*330 _0329_
*331 _0330_
*332 _0331_
*333 _0332_
*334 _0333_
*335 _0334_
*336 _0335_
*337 _0336_
*338 _0337_
*339 _0338_
*340 _0339_
*341 _0340_
*342 _0341_
*343 _0342_
*344 _0343_
*345 _0344_
*346 _0345_
*347 _0346_
*348 _0347_
*349 _0348_
*350 _0349_
*351 _0350_
*352 _0351_
*353 _0352_
*354 _0353_
*355 _0354_
*356 _0355_
*357 _0356_
*358 _0357_
*359 _0358_
*360 _0359_
*361 _0360_
*362 _0361_
*363 _0362_
*364 _0363_
*365 _0364_
*366 _0365_
*367 _0366_
*368 _0367_
*369 _0368_
*370 _0369_
*371 _0370_
*372 _0371_
*373 _0372_
*374 _0373_
*375 _0374_
*376 _0375_
*377 _0376_
*378 _0377_
*379 _0378_
*380 _0379_
*381 _0380_
*382 _0381_
*383 _0382_
*384 _0383_
*385 _0384_
*386 _0385_
*387 _0386_
*388 _0387_
*389 _0388_
*390 _0389_
*391 _0390_
*392 _0391_
*393 _0392_
*394 _0393_
*395 _0394_
*396 _0395_
*397 _0396_
*398 _0397_
*399 _0398_
*400 _0399_
*401 _0400_
*402 _0401_
*403 _0402_
*404 _0403_
*405 _0404_
*406 _0405_
*407 _0406_
*408 _0407_
*409 _0408_
*410 _0409_
*411 _0410_
*412 _0411_
*413 _0412_
*414 _0413_
*415 _0414_
*416 _0415_
*417 _0416_
*418 _0417_
*419 _0418_
*420 _0419_
*421 _0420_
*422 _0421_
*423 _0422_
*424 _0423_
*425 _0424_
*426 _0425_
*427 _0426_
*428 _0427_
*429 _0428_
*430 _0429_
*431 _0430_
*432 _0431_
*433 _0432_
*434 _0433_
*435 _0434_
*436 _0435_
*437 _0436_
*438 _0437_
*439 _0438_
*440 _0439_
*441 _0440_
*442 _0441_
*443 _0442_
*444 _0443_
*445 _0444_
*446 _0445_
*447 _0446_
*448 _0447_
*449 _0448_
*450 _0449_
*451 _0450_
*452 _0451_
*453 _0452_
*454 _0453_
*455 _0454_
*456 _0455_
*457 _0456_
*458 _0457_
*459 _0458_
*460 _0459_
*461 _0460_
*462 _0461_
*463 _0462_
*464 _0463_
*465 _0464_
*466 _0465_
*467 _0466_
*468 _0467_
*469 _0468_
*470 _0469_
*471 _0470_
*472 _0471_
*473 _0472_
*474 _0473_
*475 _0474_
*476 _0475_
*477 _0476_
*478 _0477_
*479 _0478_
*480 _0479_
*481 _0480_
*482 _0481_
*483 _0482_
*484 _0483_
*485 _0484_
*486 _0485_
*487 _0486_
*488 _0487_
*489 _0488_
*490 _0489_
*491 _0490_
*492 _0491_
*493 _0492_
*494 _0493_
*495 _0494_
*496 _0495_
*497 _0496_
*498 _0497_
*499 _0498_
*500 _0499_
*501 _0500_
*502 _0501_
*503 _0502_
*504 _0503_
*505 _0504_
*506 _0505_
*507 _0506_
*508 _0507_
*509 _0508_
*510 _0509_
*511 _0510_
*512 _0511_
*513 _0512_
*514 _0513_
*515 _0514_
*516 _0515_
*517 _0516_
*518 _0517_
*519 _0518_
*520 _0519_
*521 _0520_
*522 _0521_
*523 _0522_
*524 _0523_
*525 _0524_
*526 _0525_
*527 _0526_
*528 _0527_
*529 _0528_
*530 _0529_
*531 _0530_
*532 _0531_
*533 _0532_
*534 _0533_
*535 _0534_
*536 _0535_
*537 _0536_
*538 _0537_
*539 _0538_
*540 _0539_
*541 _0540_
*542 _0541_
*543 _0542_
*544 _0543_
*545 _0544_
*546 _0545_
*547 _0546_
*548 _0547_
*549 _0548_
*550 _0549_
*551 _0550_
*552 _0551_
*553 _0552_
*554 _0553_
*555 _0554_
*556 _0555_
*557 _0556_
*558 _0557_
*559 _0558_
*560 _0559_
*561 _0560_
*562 _0561_
*563 _0562_
*564 _0563_
*565 _0564_
*566 _0565_
*567 _0566_
*568 _0567_
*569 _0568_
*570 _0569_
*571 _0570_
*572 _0571_
*573 _0572_
*574 _0573_
*575 _0574_
*576 _0575_
*577 _0576_
*578 _0577_
*579 _0578_
*580 _0579_
*581 _0580_
*582 _0581_
*583 _0582_
*584 _0583_
*585 _0584_
*586 _0585_
*587 _0586_
*588 _0587_
*589 _0588_
*590 _0589_
*591 _0590_
*592 _0591_
*593 _0592_
*594 _0593_
*595 _0594_
*596 _0595_
*597 _0596_
*598 _0597_
*599 _0598_
*600 _0599_
*601 _0600_
*602 _0601_
*603 _0602_
*604 _0603_
*605 _0604_
*606 _0605_
*607 _0606_
*608 _0607_
*609 _0608_
*610 _0609_
*611 _0610_
*612 _0611_
*613 _0612_
*614 _0613_
*615 _0614_
*616 _0615_
*617 _0616_
*618 _0617_
*619 _0618_
*620 _0619_
*621 _0620_
*622 _0621_
*623 _0622_
*624 _0623_
*625 _0624_
*626 _0625_
*627 _0626_
*628 _0627_
*629 _0628_
*630 _0629_
*631 _0630_
*632 _0631_
*633 _0632_
*634 _0633_
*635 _0634_
*636 _0635_
*637 _0636_
*638 _0637_
*639 _0638_
*640 _0639_
*641 _0640_
*642 _0641_
*643 _0642_
*644 _0643_
*645 _0644_
*646 _0645_
*647 _0646_
*648 _0647_
*649 _0648_
*650 _0649_
*651 _0650_
*652 _0651_
*653 _0652_
*654 _0653_
*655 _0654_
*656 _0655_
*657 _0656_
*658 _0657_
*659 _0658_
*660 _0659_
*661 _0660_
*662 _0661_
*663 _0662_
*664 _0663_
*665 _0664_
*666 _0665_
*667 _0666_
*668 _0667_
*669 _0668_
*670 _0669_
*671 _0670_
*672 _0671_
*673 _0672_
*674 _0673_
*675 _0674_
*676 _0675_
*677 _0676_
*678 _0677_
*679 _0678_
*680 _0679_
*681 _0680_
*682 _0681_
*683 _0682_
*684 _0683_
*685 ce
*686 clk
*687 net114
*688 l_i[0]
*689 l_i[10]
*690 l_i[11]
*691 l_i[12]
*692 l_i[13]
*693 l_i[14]
*694 l_i[15]
*695 l_i[16]
*696 l_i[17]
*697 l_i[18]
*698 l_i[19]
*699 l_i[1]
*700 l_i[20]
*701 l_i[21]
*702 l_i[22]
*703 l_i[23]
*704 l_i[24]
*705 l_i[25]
*706 l_i[26]
*707 l_i[27]
*708 l_i[28]
*709 l_i[29]
*710 l_i[2]
*711 l_i[30]
*712 l_i[31]
*713 l_i[32]
*714 l_i[33]
*715 l_i[34]
*716 l_i[35]
*717 l_i[3]
*718 l_i[4]
*719 l_i[5]
*720 l_i[6]
*721 l_i[7]
*722 l_i[8]
*723 l_i[9]
*724 net115
*725 l_i_v
*726 net116
*727 net117
*728 net118
*729 net119
*730 net120
*731 net121
*732 net122
*733 net123
*734 net124
*735 net125
*736 net126
*737 net127
*738 net128
*739 net129
*740 net130
*741 net131
*742 net132
*743 net133
*744 net134
*745 net135
*746 net136
*747 net137
*748 net138
*749 net139
*750 net140
*751 net141
*752 net142
*753 net143
*754 net144
*755 net145
*756 net146
*757 net147
*758 net148
*759 net149
*760 net150
*761 net151
*762 l_o_bp
*763 net152
*764 r_i[0]
*765 r_i[10]
*766 r_i[11]
*767 r_i[12]
*768 r_i[13]
*769 r_i[14]
*770 r_i[15]
*771 r_i[16]
*772 r_i[17]
*773 r_i[18]
*774 r_i[19]
*775 r_i[1]
*776 r_i[20]
*777 r_i[21]
*778 r_i[22]
*779 r_i[23]
*780 r_i[24]
*781 r_i[25]
*782 r_i[26]
*783 r_i[27]
*784 r_i[28]
*785 r_i[29]
*786 r_i[2]
*787 r_i[30]
*788 r_i[31]
*789 r_i[32]
*790 r_i[33]
*791 r_i[34]
*792 r_i[35]
*793 r_i[3]
*794 r_i[4]
*795 r_i[5]
*796 r_i[6]
*797 r_i[7]
*798 r_i[8]
*799 r_i[9]
*800 net153
*801 r_i_v
*802 net154
*803 net155
*804 net156
*805 net157
*806 net158
*807 net159
*808 net160
*809 net161
*810 net162
*811 net163
*812 net164
*813 net165
*814 net166
*815 net167
*816 net168
*817 net169
*818 net170
*819 net171
*820 net172
*821 net173
*822 net174
*823 net175
*824 net176
*825 net177
*826 net178
*827 net179
*828 net180
*829 net181
*830 net182
*831 net183
*832 net184
*833 net185
*834 net186
*835 net187
*836 net188
*837 net189
*838 r_o_bp
*839 net190
*840 rst
*841 u0_i[0]
*842 u0_i[10]
*843 u0_i[11]
*844 u0_i[12]
*845 u0_i[13]
*846 u0_i[14]
*847 u0_i[15]
*848 u0_i[16]
*849 u0_i[17]
*850 u0_i[18]
*851 u0_i[19]
*852 u0_i[1]
*853 u0_i[20]
*854 u0_i[21]
*855 u0_i[22]
*856 u0_i[23]
*857 u0_i[24]
*858 u0_i[25]
*859 u0_i[26]
*860 u0_i[27]
*861 u0_i[28]
*862 u0_i[29]
*863 u0_i[2]
*864 u0_i[30]
*865 u0_i[31]
*866 u0_i[32]
*867 u0_i[33]
*868 u0_i[34]
*869 u0_i[35]
*870 u0_i[3]
*871 u0_i[4]
*872 u0_i[5]
*873 u0_i[6]
*874 u0_i[7]
*875 u0_i[8]
*876 u0_i[9]
*877 net191
*878 u0_i_v
*879 net192
*880 net193
*881 net194
*882 net195
*883 net196
*884 net197
*885 net198
*886 net199
*887 net200
*888 net201
*889 net202
*890 net203
*891 net204
*892 net205
*893 net206
*894 net207
*895 net208
*896 net209
*897 net210
*898 net211
*899 net212
*900 net213
*901 net214
*902 net215
*903 net216
*904 net217
*905 net218
*906 net219
*907 net220
*908 net221
*909 net222
*910 net223
*911 net224
*912 net225
*913 net226
*914 net227
*915 u0_o_bp
*916 net228
*919 net1
*920 net2
*921 net3
*922 net4
*923 net5
*924 net6
*925 net7
*926 net8
*927 net9
*928 net10
*929 net11
*930 net12
*931 net13
*932 net14
*933 net15
*934 net16
*935 net17
*936 net18
*937 net19
*938 net20
*939 net21
*940 net22
*941 net23
*942 net24
*943 net25
*944 net26
*945 net27
*946 net28
*947 net29
*948 net30
*949 net31
*950 net32
*951 net33
*952 net34
*953 net35
*954 net36
*955 net37
*956 net38
*957 net39
*958 net40
*959 net41
*960 net42
*961 net43
*962 net44
*963 net45
*964 net46
*965 net47
*966 net48
*967 net49
*968 net50
*969 net51
*970 net52
*971 net53
*972 net54
*973 net55
*974 net56
*975 net57
*976 net58
*977 net59
*978 net60
*979 net61
*980 net62
*981 net63
*982 net64
*983 net65
*984 net66
*985 net67
*986 net68
*987 net69
*988 net70
*989 net71
*990 net72
*991 net73
*992 net74
*993 net75
*994 net76
*995 net77
*996 net78
*997 net79
*998 net80
*999 net81
*1000 net82
*1001 net83
*1002 net84
*1003 net85
*1004 net86
*1005 net87
*1006 net88
*1007 net89
*1008 net90
*1009 net91
*1010 net92
*1011 net93
*1012 net94
*1013 net95
*1014 net96
*1015 net97
*1016 net98
*1017 net99
*1018 net100
*1019 net101
*1020 net102
*1021 net103
*1022 net104
*1023 net105
*1024 net106
*1025 net107
*1026 net108
*1027 net109
*1028 net110
*1029 net111
*1030 net112
*1031 net113
*1032 done
*1033 l_i_bp
*1034 l_o[0]
*1035 l_o[10]
*1036 l_o[11]
*1037 l_o[12]
*1038 l_o[13]
*1039 l_o[14]
*1040 l_o[15]
*1041 l_o[16]
*1042 l_o[17]
*1043 l_o[18]
*1044 l_o[19]
*1045 l_o[1]
*1046 l_o[20]
*1047 l_o[21]
*1048 l_o[22]
*1049 l_o[23]
*1050 l_o[24]
*1051 l_o[25]
*1052 l_o[26]
*1053 l_o[27]
*1054 l_o[28]
*1055 l_o[29]
*1056 l_o[2]
*1057 l_o[30]
*1058 l_o[31]
*1059 l_o[32]
*1060 l_o[33]
*1061 l_o[34]
*1062 l_o[35]
*1063 l_o[3]
*1064 l_o[4]
*1065 l_o[5]
*1066 l_o[6]
*1067 l_o[7]
*1068 l_o[8]
*1069 l_o[9]
*1070 l_o_v
*1071 r_i_bp
*1072 r_o[0]
*1073 r_o[10]
*1074 r_o[11]
*1075 r_o[12]
*1076 r_o[13]
*1077 r_o[14]
*1078 r_o[15]
*1079 r_o[16]
*1080 r_o[17]
*1081 r_o[18]
*1082 r_o[19]
*1083 r_o[1]
*1084 r_o[20]
*1085 r_o[21]
*1086 r_o[22]
*1087 r_o[23]
*1088 r_o[24]
*1089 r_o[25]
*1090 r_o[26]
*1091 r_o[27]
*1092 r_o[28]
*1093 r_o[29]
*1094 r_o[2]
*1095 r_o[30]
*1096 r_o[31]
*1097 r_o[32]
*1098 r_o[33]
*1099 r_o[34]
*1100 r_o[35]
*1101 r_o[3]
*1102 r_o[4]
*1103 r_o[5]
*1104 r_o[6]
*1105 r_o[7]
*1106 r_o[8]
*1107 r_o[9]
*1108 r_o_v
*1109 u0_i_bp
*1110 u0_o[0]
*1111 u0_o[10]
*1112 u0_o[11]
*1113 u0_o[12]
*1114 u0_o[13]
*1115 u0_o[14]
*1116 u0_o[15]
*1117 u0_o[16]
*1118 u0_o[17]
*1119 u0_o[18]
*1120 u0_o[19]
*1121 u0_o[1]
*1122 u0_o[20]
*1123 u0_o[21]
*1124 u0_o[22]
*1125 u0_o[23]
*1126 u0_o[24]
*1127 u0_o[25]
*1128 u0_o[26]
*1129 u0_o[27]
*1130 u0_o[28]
*1131 u0_o[29]
*1132 u0_o[2]
*1133 u0_o[30]
*1134 u0_o[31]
*1135 u0_o[32]
*1136 u0_o[33]
*1137 u0_o[34]
*1138 u0_o[35]
*1139 u0_o[3]
*1140 u0_o[4]
*1141 u0_o[5]
*1142 u0_o[6]
*1143 u0_o[7]
*1144 u0_o[8]
*1145 u0_o[9]
*1146 u0_o_v
*1147 clknet_0_clk
*1148 clknet_4_0_0_clk
*1149 clknet_4_1_0_clk
*1150 clknet_4_2_0_clk
*1151 clknet_4_3_0_clk
*1152 clknet_4_4_0_clk
*1153 clknet_4_5_0_clk
*1154 clknet_4_6_0_clk
*1155 clknet_4_7_0_clk
*1156 clknet_4_8_0_clk
*1157 clknet_4_9_0_clk
*1158 clknet_4_10_0_clk
*1159 clknet_4_11_0_clk
*1160 clknet_4_12_0_clk
*1161 clknet_4_13_0_clk
*1162 clknet_4_14_0_clk
*1163 clknet_4_15_0_clk
*1164 _0684_
*1165 _0685_
*1166 _0686_
*1167 _0687_
*1168 _0688_
*1169 _0689_
*1170 _0690_
*1171 _0691_
*1172 _0692_
*1173 _0693_
*1174 _0694_
*1175 _0695_
*1176 _0696_
*1177 _0697_
*1178 _0698_
*1179 _0699_
*1180 _0700_
*1181 _0701_
*1182 _0702_
*1183 _0703_
*1184 _0704_
*1185 _0705_
*1186 _0706_
*1187 _0707_
*1188 _0708_
*1189 _0709_
*1190 _0710_
*1191 _0711_
*1192 _0712_
*1193 _0713_
*1194 _0714_
*1195 _0715_
*1196 _0716_
*1197 _0717_
*1198 _0718_
*1199 _0719_
*1200 _0720_
*1201 _0721_
*1202 _0722_
*1203 _0723_
*1204 _0724_
*1205 _0725_
*1206 _0726_
*1207 _0727_
*1208 _0728_
*1209 _0729_
*1210 _0730_
*1211 _0731_
*1212 _0732_
*1213 _0733_
*1214 _0734_
*1215 _0735_
*1216 _0736_
*1217 _0737_
*1218 _0738_
*1219 _0739_
*1220 _0740_
*1221 _0741_
*1222 _0742_
*1223 _0743_
*1224 _0744_
*1225 _0745_
*1226 _0746_
*1227 _0747_
*1228 _0748_
*1229 _0749_
*1230 _0750_
*1231 _0751_
*1232 _0752_
*1233 _0753_
*1234 _0754_
*1235 _0755_
*1236 _0756_
*1237 _0757_
*1238 _0758_
*1239 _0759_
*1240 _0760_
*1241 _0761_
*1242 _0762_
*1243 _0763_
*1244 _0764_
*1245 _0765_
*1246 _0766_
*1247 _0767_
*1248 _0768_
*1249 _0769_
*1250 _0770_
*1251 _0771_
*1252 _0772_
*1253 _0773_
*1254 _0774_
*1255 _0775_
*1256 _0776_
*1257 _0777_
*1258 _0778_
*1259 _0779_
*1260 _0780_
*1261 _0781_
*1262 _0782_
*1263 _0783_
*1264 _0784_
*1265 _0785_
*1266 _0786_
*1267 _0787_
*1268 _0788_
*1269 _0789_
*1270 _0790_
*1271 _0791_
*1272 _0792_
*1273 _0793_
*1274 _0794_
*1275 _0795_
*1276 _0796_
*1277 _0797_
*1278 _0798_
*1279 _0799_
*1280 _0800_
*1281 _0801_
*1282 _0802_
*1283 _0803_
*1284 _0804_
*1285 _0805_
*1286 _0806_
*1287 _0807_
*1288 _0808_
*1289 _0809_
*1290 _0810_
*1291 _0811_
*1292 _0812_
*1293 _0813_
*1294 _0814_
*1295 _0815_
*1296 _0816_
*1297 _0817_
*1298 _0818_
*1299 _0819_
*1300 _0820_
*1301 _0821_
*1302 _0822_
*1303 _0823_
*1304 _0824_
*1305 _0825_
*1306 _0826_
*1307 _0827_
*1308 _0828_
*1309 _0829_
*1310 _0830_
*1311 _0831_
*1312 _0832_
*1313 _0833_
*1314 _0834_
*1315 _0835_
*1316 _0836_
*1317 _0837_
*1318 _0838_
*1319 _0839_
*1320 _0840_
*1321 _0841_
*1322 _0842_
*1323 _0843_
*1324 _0844_
*1325 _0845_
*1326 _0846_
*1327 _0847_
*1328 _0848_
*1329 _0849_
*1330 _0850_
*1331 _0851_
*1332 _0852_
*1333 _0853_
*1334 _0854_
*1335 _0855_
*1336 _0856_
*1337 _0857_
*1338 _0858_
*1339 _0859_
*1340 _0860_
*1341 _0861_
*1342 _0862_
*1343 _0863_
*1344 _0864_
*1345 _0865_
*1346 _0866_
*1347 _0867_
*1348 _0868_
*1349 _0869_
*1350 _0870_
*1351 _0871_
*1352 _0872_
*1353 _0873_
*1354 _0874_
*1355 _0875_
*1356 _0876_
*1357 _0877_
*1358 _0878_
*1359 _0879_
*1360 _0880_
*1361 _0881_
*1362 _0882_
*1363 _0883_
*1364 _0884_
*1365 _0885_
*1366 _0886_
*1367 _0887_
*1368 _0888_
*1369 _0889_
*1370 _0890_
*1371 _0891_
*1372 _0892_
*1373 _0893_
*1374 _0894_
*1375 _0895_
*1376 _0896_
*1377 _0897_
*1378 _0898_
*1379 _0899_
*1380 _0900_
*1381 _0901_
*1382 _0902_
*1383 _0903_
*1384 _0904_
*1385 _0905_
*1386 _0906_
*1387 _0907_
*1388 _0908_
*1389 _0909_
*1390 _0910_
*1391 _0911_
*1392 _0912_
*1393 _0913_
*1394 _0914_
*1395 _0915_
*1396 _0916_
*1397 _0917_
*1398 _0918_
*1399 _0919_
*1400 _0920_
*1401 _0921_
*1402 _0922_
*1403 _0923_
*1404 _0924_
*1405 _0925_
*1406 _0926_
*1407 _0927_
*1408 _0928_
*1409 _0929_
*1410 _0930_
*1411 _0931_
*1412 _0932_
*1413 _0933_
*1414 _0934_
*1415 _0935_
*1416 _0936_
*1417 _0937_
*1418 _0938_
*1419 _0939_
*1420 _0940_
*1421 _0941_
*1422 _0942_
*1423 _0943_
*1424 _0944_
*1425 _0945_
*1426 _0946_
*1427 _0947_
*1428 _0948_
*1429 _0949_
*1430 _0950_
*1431 _0951_
*1432 _0952_
*1433 _0953_
*1434 _0954_
*1435 _0955_
*1436 _0956_
*1437 _0957_
*1438 _0958_
*1439 _0959_
*1440 _0960_
*1441 _0961_
*1442 _0962_
*1443 _0963_
*1444 _0964_
*1445 _0965_
*1446 _0966_
*1447 _0967_
*1448 _0968_
*1449 _0969_
*1450 _0970_
*1451 _0971_
*1452 _0972_
*1453 _0973_
*1454 _0974_
*1455 _0975_
*1456 _0976_
*1457 _0977_
*1458 _0978_
*1459 _0979_
*1460 _0980_
*1461 _0981_
*1462 _0982_
*1463 _0983_
*1464 _0984_
*1465 _0985_
*1466 _0986_
*1467 _0987_
*1468 _0988_
*1469 _0989_
*1470 _0990_
*1471 _0991_
*1472 _0992_
*1473 _0993_
*1474 _0994_
*1475 _0995_
*1476 _0996_
*1477 _0997_
*1478 _0998_
*1479 _0999_
*1480 _1000_
*1481 _1001_
*1482 _1002_
*1483 _1003_
*1484 _1004_
*1485 _1005_
*1486 _1006_
*1487 _1007_
*1488 _1008_
*1489 _1009_
*1490 _1010_
*1491 _1011_
*1492 _1012_
*1493 _1013_
*1494 _1014_
*1495 _1015_
*1496 _1016_
*1497 _1017_
*1498 _1018_
*1499 _1019_
*1500 _1020_
*1501 _1021_
*1502 _1022_
*1503 _1023_
*1504 _1024_
*1505 _1025_
*1506 _1026_
*1507 _1027_
*1508 _1028_
*1509 _1029_
*1510 _1030_
*1511 _1031_
*1512 _1032_
*1513 _1033_
*1514 _1034_
*1515 _1035_
*1516 _1036_
*1517 _1037_
*1518 _1038_
*1519 _1039_
*1520 _1040_
*1521 _1041_
*1522 _1042_
*1523 _1043_
*1524 _1044_
*1525 _1045_
*1526 _1046_
*1527 _1047_
*1528 _1048_
*1529 _1049_
*1530 _1050_
*1531 _1051_
*1532 _1052_
*1533 _1053_
*1534 _1054_
*1535 _1055_
*1536 _1056_
*1537 _1057_
*1538 _1058_
*1539 _1059_
*1540 _1060_
*1541 _1061_
*1542 _1062_
*1543 _1063_
*1544 _1064_
*1545 _1065_
*1546 _1066_
*1547 _1067_
*1548 _1068_
*1549 _1069_
*1550 _1070_
*1551 _1071_
*1552 _1072_
*1553 _1073_
*1554 _1074_
*1555 _1075_
*1556 _1076_
*1557 _1077_
*1558 _1078_
*1559 _1079_
*1560 _1080_
*1561 _1081_
*1562 _1082_
*1563 _1083_
*1564 _1084_
*1565 _1085_
*1566 _1086_
*1567 _1087_
*1568 _1088_
*1569 _1089_
*1570 _1090_
*1571 _1091_
*1572 _1092_
*1573 _1093_
*1574 _1094_
*1575 _1095_
*1576 _1096_
*1577 _1097_
*1578 _1098_
*1579 _1099_
*1580 _1100_
*1581 _1101_
*1582 _1102_
*1583 _1103_
*1584 _1104_
*1585 _1105_
*1586 _1106_
*1587 _1107_
*1588 _1108_
*1589 _1109_
*1590 _1110_
*1591 _1111_
*1592 _1112_
*1593 _1113_
*1594 _1114_
*1595 _1115_
*1596 _1116_
*1597 _1117_
*1598 _1118_
*1599 _1119_
*1600 _1120_
*1601 _1121_
*1602 _1122_
*1603 _1123_
*1604 _1124_
*1605 _1125_
*1606 _1126_
*1607 _1127_
*1608 _1128_
*1609 _1129_
*1610 _1130_
*1611 _1131_
*1612 _1132_
*1613 _1133_
*1614 _1134_
*1615 _1135_
*1616 _1136_
*1617 _1137_
*1618 _1138_
*1619 _1139_
*1620 _1140_
*1621 _1141_
*1622 _1142_
*1623 _1143_
*1624 _1144_
*1625 _1145_
*1626 _1146_
*1627 _1147_
*1628 _1148_
*1629 _1149_
*1630 _1150_
*1631 _1151_
*1632 _1152_
*1633 _1153_
*1634 _1154_
*1635 _1155_
*1636 _1156_
*1637 _1157_
*1638 _1158_
*1639 _1159_
*1640 _1160_
*1641 _1161_
*1642 _1162_
*1643 _1163_
*1644 _1164_
*1645 _1165_
*1646 _1166_
*1647 _1167_
*1648 _1168_
*1649 _1169_
*1650 _1170_
*1651 _1171_
*1652 _1172_
*1653 _1173_
*1654 _1174_
*1655 _1175_
*1656 _1176_
*1657 _1177_
*1658 _1178_
*1659 _1179_
*1660 _1180_
*1661 _1181_
*1662 _1182_
*1663 _1183_
*1664 _1184_
*1665 _1185_
*1666 _1186_
*1667 _1187_
*1668 _1188_
*1669 _1189_
*1670 _1190_
*1671 _1191_
*1672 _1192_
*1673 _1193_
*1674 _1194_
*1675 _1195_
*1676 _1196_
*1677 _1197_
*1678 _1198_
*1679 _1199_
*1680 _1200_
*1681 _1201_
*1682 _1202_
*1683 _1203_
*1684 _1204_
*1685 _1205_
*1686 _1206_
*1687 _1207_
*1688 _1208_
*1689 _1209_
*1690 _1210_
*1691 _1211_
*1692 _1212_
*1693 _1213_
*1694 _1214_
*1695 _1215_
*1696 _1216_
*1697 _1217_
*1698 _1218_
*1699 _1219_
*1700 _1220_
*1701 _1221_
*1702 _1222_
*1703 _1223_
*1704 _1224_
*1705 _1225_
*1706 _1226_
*1707 _1227_
*1708 _1228_
*1709 _1229_
*1710 _1230_
*1711 _1231_
*1712 _1232_
*1713 _1233_
*1714 _1234_
*1715 _1235_
*1716 _1236_
*1717 _1237_
*1718 _1238_
*1719 _1239_
*1720 _1240_
*1721 _1241_
*1722 _1242_
*1723 _1243_
*1724 _1244_
*1725 _1245_
*1726 _1246_
*1727 _1247_
*1728 _1248_
*1729 _1249_
*1730 _1250_
*1731 _1251_
*1732 _1252_
*1733 _1253_
*1734 _1254_
*1735 _1255_
*1736 _1256_
*1737 _1257_
*1738 _1258_
*1739 _1259_
*1740 _1260_
*1741 _1261_
*1742 _1262_
*1743 _1263_
*1744 _1264_
*1745 _1265_
*1746 _1266_
*1747 _1267_
*1748 _1268_
*1749 _1269_
*1750 _1270_
*1751 _1271_
*1752 _1272_
*1753 _1273_
*1754 _1274_
*1755 _1275_
*1756 _1276_
*1757 _1277_
*1758 _1278_
*1759 _1279_
*1760 _1280_
*1761 _1281_
*1762 _1282_
*1763 _1283_
*1764 _1284_
*1765 _1285_
*1766 _1286_
*1767 _1287_
*1768 _1288_
*1769 _1289_
*1770 _1290_
*1771 _1291_
*1772 _1292_
*1773 _1293_
*1774 _1294_
*1775 _1295_
*1776 _1296_
*1777 _1297_
*1778 _1298_
*1779 _1299_
*1780 _1300_
*1781 _1301_
*1782 _1302_
*1783 _1303_
*1784 _1304_
*1785 _1305_
*1786 _1306_
*1787 _1307_
*1788 _1308_
*1789 _1309_
*1790 _1310_
*1791 _1311_
*1792 _1312_
*1793 _1313_
*1794 _1314_
*1795 _1315_
*1796 _1316_
*1797 _1317_
*1798 _1318_
*1799 _1319_
*1800 _1320_
*1801 _1321_
*1802 _1322_
*1803 _1323_
*1804 _1324_
*1805 _1325_
*1806 _1326_
*1807 _1327_
*1808 _1328_
*1809 _1329_
*1810 _1330_
*1811 _1331_
*1812 _1332_
*1813 _1333_
*1814 _1334_
*1815 _1335_
*1816 _1336_
*1817 _1337_
*1818 _1338_
*1819 _1339_
*1820 _1340_
*1821 _1341_
*1822 _1342_
*1823 _1343_
*1824 _1344_
*1825 _1345_
*1826 _1346_
*1827 _1347_
*1828 _1348_
*1829 _1349_
*1830 _1350_
*1831 _1351_
*1832 _1352_
*1833 _1353_
*1834 _1354_
*1835 _1355_
*1836 _1356_
*1837 _1357_
*1838 _1358_
*1839 _1359_
*1840 _1360_
*1841 _1361_
*1842 _1362_
*1843 _1363_
*1844 _1364_
*1845 _1365_
*1846 _1366_
*1847 _1367_
*1848 done_sig\$_DFF_P_
*1849 l_o_r\[0\]\$_SDFFE_PP0N_
*1850 l_o_r\[10\]\$_SDFFE_PP0N_
*1851 l_o_r\[11\]\$_SDFFE_PP0N_
*1852 l_o_r\[12\]\$_SDFFE_PP0N_
*1853 l_o_r\[13\]\$_SDFFE_PP0N_
*1854 l_o_r\[14\]\$_SDFFE_PP0N_
*1855 l_o_r\[15\]\$_SDFFE_PP0N_
*1856 l_o_r\[16\]\$_SDFFE_PP0N_
*1857 l_o_r\[17\]\$_SDFFE_PP0N_
*1858 l_o_r\[18\]\$_SDFFE_PP0N_
*1859 l_o_r\[19\]\$_SDFFE_PP0N_
*1860 l_o_r\[1\]\$_SDFFE_PP0N_
*1861 l_o_r\[20\]\$_SDFFE_PP0N_
*1862 l_o_r\[21\]\$_SDFFE_PP0N_
*1863 l_o_r\[22\]\$_SDFFE_PP0N_
*1864 l_o_r\[23\]\$_SDFFE_PP0N_
*1865 l_o_r\[24\]\$_SDFFE_PP0N_
*1866 l_o_r\[25\]\$_SDFFE_PP0N_
*1867 l_o_r\[26\]\$_SDFFE_PP0N_
*1868 l_o_r\[27\]\$_SDFFE_PP0N_
*1869 l_o_r\[28\]\$_SDFFE_PP0N_
*1870 l_o_r\[29\]\$_SDFFE_PP0N_
*1871 l_o_r\[2\]\$_SDFFE_PP0N_
*1872 l_o_r\[30\]\$_SDFFE_PP0N_
*1873 l_o_r\[31\]\$_SDFFE_PP0N_
*1874 l_o_r\[32\]\$_SDFFE_PP0N_
*1875 l_o_r\[33\]\$_SDFFE_PP0N_
*1876 l_o_r\[34\]\$_SDFFE_PP0N_
*1877 l_o_r\[35\]\$_SDFFE_PP0N_
*1878 l_o_r\[3\]\$_SDFFE_PP0N_
*1879 l_o_r\[4\]\$_SDFFE_PP0N_
*1880 l_o_r\[5\]\$_SDFFE_PP0N_
*1881 l_o_r\[6\]\$_SDFFE_PP0N_
*1882 l_o_r\[7\]\$_SDFFE_PP0N_
*1883 l_o_r\[8\]\$_SDFFE_PP0N_
*1884 l_o_r\[9\]\$_SDFFE_PP0N_
*1885 l_o_v_r\$_SDFFE_PP0N_
*1886 r\.rr\[0\]\$_DFF_P_
*1887 r\.rr\[1\]\$_DFF_P_
*1888 r\.rr\[2\]\$_DFF_P_
*1889 r_o_r\[0\]\$_SDFFE_PP0N_
*1890 r_o_r\[10\]\$_SDFFE_PP0N_
*1891 r_o_r\[11\]\$_SDFFE_PP0N_
*1892 r_o_r\[12\]\$_SDFFE_PP0N_
*1893 r_o_r\[13\]\$_SDFFE_PP0N_
*1894 r_o_r\[14\]\$_SDFFE_PP0N_
*1895 r_o_r\[15\]\$_SDFFE_PP0N_
*1896 r_o_r\[16\]\$_SDFFE_PP0N_
*1897 r_o_r\[17\]\$_SDFFE_PP0N_
*1898 r_o_r\[18\]\$_SDFFE_PP0N_
*1899 r_o_r\[19\]\$_SDFFE_PP0N_
*1900 r_o_r\[1\]\$_SDFFE_PP0N_
*1901 r_o_r\[20\]\$_SDFFE_PP0N_
*1902 r_o_r\[21\]\$_SDFFE_PP0N_
*1903 r_o_r\[22\]\$_SDFFE_PP0N_
*1904 r_o_r\[23\]\$_SDFFE_PP0N_
*1905 r_o_r\[24\]\$_SDFFE_PP0N_
*1906 r_o_r\[25\]\$_SDFFE_PP0N_
*1907 r_o_r\[26\]\$_SDFFE_PP0N_
*1908 r_o_r\[27\]\$_SDFFE_PP0N_
*1909 r_o_r\[28\]\$_SDFFE_PP0N_
*1910 r_o_r\[29\]\$_SDFFE_PP0N_
*1911 r_o_r\[2\]\$_SDFFE_PP0N_
*1912 r_o_r\[30\]\$_SDFFE_PP0N_
*1913 r_o_r\[31\]\$_SDFFE_PP0N_
*1914 r_o_r\[32\]\$_SDFFE_PP0N_
*1915 r_o_r\[33\]\$_SDFFE_PP0N_
*1916 r_o_r\[34\]\$_SDFFE_PP0N_
*1917 r_o_r\[35\]\$_SDFFE_PP0N_
*1918 r_o_r\[3\]\$_SDFFE_PP0N_
*1919 r_o_r\[4\]\$_SDFFE_PP0N_
*1920 r_o_r\[5\]\$_SDFFE_PP0N_
*1921 r_o_r\[6\]\$_SDFFE_PP0N_
*1922 r_o_r\[7\]\$_SDFFE_PP0N_
*1923 r_o_r\[8\]\$_SDFFE_PP0N_
*1924 r_o_r\[9\]\$_SDFFE_PP0N_
*1925 r_o_v_r\$_SDFFE_PP0N_
*1926 u0_o_r\[0\]\$_SDFFE_PP0N_
*1927 u0_o_r\[10\]\$_SDFFE_PP0N_
*1928 u0_o_r\[11\]\$_SDFFE_PP0N_
*1929 u0_o_r\[12\]\$_SDFFE_PP0N_
*1930 u0_o_r\[13\]\$_SDFFE_PP0N_
*1931 u0_o_r\[14\]\$_SDFFE_PP0N_
*1932 u0_o_r\[15\]\$_SDFFE_PP0N_
*1933 u0_o_r\[16\]\$_SDFFE_PP0N_
*1934 u0_o_r\[17\]\$_SDFFE_PP0N_
*1935 u0_o_r\[18\]\$_SDFFE_PP0N_
*1936 u0_o_r\[19\]\$_SDFFE_PP0N_
*1937 u0_o_r\[1\]\$_SDFFE_PP0N_
*1938 u0_o_r\[20\]\$_SDFFE_PP0N_
*1939 u0_o_r\[21\]\$_SDFFE_PP0N_
*1940 u0_o_r\[22\]\$_SDFFE_PP0N_
*1941 u0_o_r\[23\]\$_SDFFE_PP0N_
*1942 u0_o_r\[24\]\$_SDFFE_PP0N_
*1943 u0_o_r\[25\]\$_SDFFE_PP0N_
*1944 u0_o_r\[26\]\$_SDFFE_PP0N_
*1945 u0_o_r\[27\]\$_SDFFE_PP0N_
*1946 u0_o_r\[28\]\$_SDFFE_PP0N_
*1947 u0_o_r\[29\]\$_SDFFE_PP0N_
*1948 u0_o_r\[2\]\$_SDFFE_PP0N_
*1949 u0_o_r\[30\]\$_SDFFE_PP0N_
*1950 u0_o_r\[31\]\$_SDFFE_PP0N_
*1951 u0_o_r\[32\]\$_SDFFE_PP0N_
*1952 u0_o_r\[33\]\$_SDFFE_PP0N_
*1953 u0_o_r\[34\]\$_SDFFE_PP0N_
*1954 u0_o_r\[35\]\$_SDFFE_PP0N_
*1955 u0_o_r\[3\]\$_SDFFE_PP0N_
*1956 u0_o_r\[4\]\$_SDFFE_PP0N_
*1957 u0_o_r\[5\]\$_SDFFE_PP0N_
*1958 u0_o_r\[6\]\$_SDFFE_PP0N_
*1959 u0_o_r\[7\]\$_SDFFE_PP0N_
*1960 u0_o_r\[8\]\$_SDFFE_PP0N_
*1961 u0_o_r\[9\]\$_SDFFE_PP0N_
*1962 u0_o_v_r\$_SDFFE_PP0N_
*1963 PHY_EDGE_ROW_0_Right_0
*1964 PHY_EDGE_ROW_1_Right_1
*1965 PHY_EDGE_ROW_2_Right_2
*1966 PHY_EDGE_ROW_3_Right_3
*1967 PHY_EDGE_ROW_4_Right_4
*1968 PHY_EDGE_ROW_5_Right_5
*1969 PHY_EDGE_ROW_6_Right_6
*1970 PHY_EDGE_ROW_7_Right_7
*1971 PHY_EDGE_ROW_8_Right_8
*1972 PHY_EDGE_ROW_9_Right_9
*1973 PHY_EDGE_ROW_10_Right_10
*1974 PHY_EDGE_ROW_11_Right_11
*1975 PHY_EDGE_ROW_12_Right_12
*1976 PHY_EDGE_ROW_13_Right_13
*1977 PHY_EDGE_ROW_14_Right_14
*1978 PHY_EDGE_ROW_15_Right_15
*1979 PHY_EDGE_ROW_16_Right_16
*1980 PHY_EDGE_ROW_17_Right_17
*1981 PHY_EDGE_ROW_18_Right_18
*1982 PHY_EDGE_ROW_19_Right_19
*1983 PHY_EDGE_ROW_20_Right_20
*1984 PHY_EDGE_ROW_21_Right_21
*1985 PHY_EDGE_ROW_22_Right_22
*1986 PHY_EDGE_ROW_23_Right_23
*1987 PHY_EDGE_ROW_24_Right_24
*1988 PHY_EDGE_ROW_25_Right_25
*1989 PHY_EDGE_ROW_26_Right_26
*1990 PHY_EDGE_ROW_27_Right_27
*1991 PHY_EDGE_ROW_28_Right_28
*1992 PHY_EDGE_ROW_29_Right_29
*1993 PHY_EDGE_ROW_30_Right_30
*1994 PHY_EDGE_ROW_31_Right_31
*1995 PHY_EDGE_ROW_32_Right_32
*1996 PHY_EDGE_ROW_33_Right_33
*1997 PHY_EDGE_ROW_34_Right_34
*1998 PHY_EDGE_ROW_35_Right_35
*1999 PHY_EDGE_ROW_36_Right_36
*2000 PHY_EDGE_ROW_37_Right_37
*2001 PHY_EDGE_ROW_38_Right_38
*2002 PHY_EDGE_ROW_39_Right_39
*2003 PHY_EDGE_ROW_40_Right_40
*2004 PHY_EDGE_ROW_41_Right_41
*2005 PHY_EDGE_ROW_42_Right_42
*2006 PHY_EDGE_ROW_43_Right_43
*2007 PHY_EDGE_ROW_44_Right_44
*2008 PHY_EDGE_ROW_45_Right_45
*2009 PHY_EDGE_ROW_46_Right_46
*2010 PHY_EDGE_ROW_47_Right_47
*2011 PHY_EDGE_ROW_48_Right_48
*2012 PHY_EDGE_ROW_49_Right_49
*2013 PHY_EDGE_ROW_50_Right_50
*2014 PHY_EDGE_ROW_51_Right_51
*2015 PHY_EDGE_ROW_52_Right_52
*2016 PHY_EDGE_ROW_53_Right_53
*2017 PHY_EDGE_ROW_54_Right_54
*2018 PHY_EDGE_ROW_55_Right_55
*2019 PHY_EDGE_ROW_0_Left_56
*2020 PHY_EDGE_ROW_1_Left_57
*2021 PHY_EDGE_ROW_2_Left_58
*2022 PHY_EDGE_ROW_3_Left_59
*2023 PHY_EDGE_ROW_4_Left_60
*2024 PHY_EDGE_ROW_5_Left_61
*2025 PHY_EDGE_ROW_6_Left_62
*2026 PHY_EDGE_ROW_7_Left_63
*2027 PHY_EDGE_ROW_8_Left_64
*2028 PHY_EDGE_ROW_9_Left_65
*2029 PHY_EDGE_ROW_10_Left_66
*2030 PHY_EDGE_ROW_11_Left_67
*2031 PHY_EDGE_ROW_12_Left_68
*2032 PHY_EDGE_ROW_13_Left_69
*2033 PHY_EDGE_ROW_14_Left_70
*2034 PHY_EDGE_ROW_15_Left_71
*2035 PHY_EDGE_ROW_16_Left_72
*2036 PHY_EDGE_ROW_17_Left_73
*2037 PHY_EDGE_ROW_18_Left_74
*2038 PHY_EDGE_ROW_19_Left_75
*2039 PHY_EDGE_ROW_20_Left_76
*2040 PHY_EDGE_ROW_21_Left_77
*2041 PHY_EDGE_ROW_22_Left_78
*2042 PHY_EDGE_ROW_23_Left_79
*2043 PHY_EDGE_ROW_24_Left_80
*2044 PHY_EDGE_ROW_25_Left_81
*2045 PHY_EDGE_ROW_26_Left_82
*2046 PHY_EDGE_ROW_27_Left_83
*2047 PHY_EDGE_ROW_28_Left_84
*2048 PHY_EDGE_ROW_29_Left_85
*2049 PHY_EDGE_ROW_30_Left_86
*2050 PHY_EDGE_ROW_31_Left_87
*2051 PHY_EDGE_ROW_32_Left_88
*2052 PHY_EDGE_ROW_33_Left_89
*2053 PHY_EDGE_ROW_34_Left_90
*2054 PHY_EDGE_ROW_35_Left_91
*2055 PHY_EDGE_ROW_36_Left_92
*2056 PHY_EDGE_ROW_37_Left_93