*SPEF "ieee 1481-1999"
*DESIGN "gcd"
*DATE "11:30:26 Monday June 16, 2025"
*VENDOR "The OpenROAD Project"
*PROGRAM "OpenROAD"
*VERSION "v2.0-21872-gd51df1dea5"
*DESIGN_FLOW "NAME_SCOPE LOCAL" "PIN_CAP NONE"
*DIVIDER /
*DELIMITER :
*BUS_DELIMITER []
*T_UNIT 1 NS
*C_UNIT 1 PF
*R_UNIT 1 OHM
*L_UNIT 1 HENRY

*NAME_MAP
*1 _000_
*2 _001_
*3 _002_
*4 _003_
*5 _004_
*6 _005_
*7 _006_
*8 _007_
*9 _008_
*10 _009_
*11 _010_
*12 _011_
*13 _012_
*14 _013_
*15 _014_
*16 _015_
*17 _016_
*18 _017_
*19 _018_
*20 _019_
*21 _020_
*22 _021_
*23 _022_
*24 _023_
*25 _024_
*26 _025_
*27 _026_
*28 _027_
*29 _028_
*30 _029_
*31 _030_
*32 _031_
*33 _032_
*34 _033_
*35 _034_
*36 _035_
*37 _036_
*38 _037_
*39 _038_
*40 _039_
*41 _040_
*42 _041_
*43 _042_
*44 _043_
*45 _044_
*46 _045_
*47 _046_
*48 _047_
*49 _048_
*50 _049_
*51 _050_
*52 _051_
*53 _052_
*54 _053_
*55 _054_
*56 _055_
*57 _056_
*58 _057_
*59 _058_
*60 _059_
*61 _060_
*62 _061_
*63 _062_
*64 _063_
*65 _064_
*66 _065_
*67 _066_
*68 _067_
*69 _068_
*70 _069_
*71 _070_
*72 net109
*73 _072_
*74 _073_
*75 _074_
*76 _075_
*77 _076_
*78 _077_
*79 _078_
*80 _079_
*81 _080_
*82 _081_
*83 _082_
*84 _083_
*85 _084_
*86 _085_
*87 _086_
*88 _087_
*89 _088_
*90 _089_
*91 _090_
*92 _091_
*93 _092_
*94 _093_
*95 _094_
*96 _095_
*97 _096_
*98 _097_
*99 _098_
*100 _099_
*101 _100_
*102 _101_
*103 _102_
*104 _103_
*105 _104_
*106 _105_
*107 _106_
*108 _107_
*109 _108_
*110 _109_
*111 _110_
*112 _111_
*113 _112_
*114 _113_
*115 _114_
*116 _115_
*117 _116_
*118 _117_
*119 _118_
*120 _119_
*121 _120_
*122 _121_
*123 _122_
*124 _123_
*125 _124_
*126 _125_
*127 _126_
*128 _127_
*129 _128_
*130 _129_
*131 _130_
*132 _131_
*133 _132_
*134 _133_
*135 _134_
*136 _135_
*137 _136_
*138 _137_
*139 _138_
*140 _139_
*141 _140_
*142 _141_
*143 _142_
*144 _143_
*145 _144_
*146 _145_
*147 _146_
*148 _147_
*149 _148_
*150 _149_
*151 _150_
*152 _151_
*153 _152_
*154 _153_
*155 _154_
*156 _155_
*157 _156_
*158 _157_
*159 _158_
*160 _159_
*161 _160_
*162 _161_
*163 _162_
*164 _163_
*165 _164_
*166 _165_
*167 _166_
*168 _167_
*169 _168_
*170 _169_
*171 _170_
*172 _171_
*173 _172_
*174 _173_
*175 _174_
*176 _175_
*177 _176_
*178 _177_
*179 _178_
*180 _179_
*181 _180_
*182 _181_
*183 _182_
*184 _183_
*185 _184_
*186 _185_
*187 _186_
*188 _187_
*189 _188_
*190 _189_
*191 _190_
*192 _191_
*193 _192_
*194 _193_
*195 _194_
*196 _195_
*197 _196_
*198 _197_
*199 _198_
*200 _199_
*201 _200_
*202 _201_
*203 _202_
*204 _203_
*205 _204_
*206 _205_
*207 _206_
*208 _207_
*209 _208_
*210 _209_
*211 _210_
*212 _211_
*213 _212_
*214 _213_
*215 _214_
*216 _215_
*217 _216_
*218 _217_
*219 _218_
*220 _219_
*221 _220_
*222 _221_
*223 _222_
*224 _223_
*225 _224_
*226 _225_
*227 _226_
*228 _227_
*229 _228_
*230 _229_
*231 _230_
*232 _231_
*233 _232_
*234 _233_
*235 _234_
*236 _235_
*237 _236_
*238 _237_
*239 _238_
*240 _239_
*241 _240_
*242 _241_
*243 _242_
*244 _243_
*245 _244_
*246 _245_
*247 _246_
*248 _247_
*249 _248_
*250 _249_
*251 _250_
*252 _251_
*253 _252_
*254 _253_
*255 _254_
*256 _255_
*257 _256_
*258 _257_
*259 _258_
*260 _259_
*261 _260_
*262 _261_
*263 _262_
*264 _263_
*265 _264_
*266 _265_
*267 _266_
*268 _267_
*269 _268_
*270 _269_
*271 _270_
*272 _271_
*273 _272_
*274 _273_
*275 _274_
*276 _275_
*277 _276_
*278 _277_
*279 _278_
*280 _279_
*281 _280_
*282 _281_
*283 _282_
*284 _283_
*285 _284_
*286 _285_
*287 _286_
*288 _287_
*289 _288_
*290 _289_
*291 _290_
*292 _291_
*293 _292_
*294 _293_
*295 _294_
*296 _295_
*297 _296_
*298 _297_
*299 _298_
*300 _299_
*301 _300_
*302 _301_
*303 _302_
*304 _303_
*305 _304_
*306 _305_
*307 _306_
*308 _307_
*309 _308_
*310 _309_
*311 _310_
*312 _311_
*313 _312_
*314 _313_
*315 _314_
*316 _315_
*317 _316_
*318 _317_
*319 _318_
*320 _319_
*321 _320_
*322 _321_
*323 _322_
*324 _323_
*325 _324_
*326 _325_
*327 _326_
*328 _327_
*329 _328_
*330 _329_
*331 _330_
*332 _331_
*333 _332_
*334 _333_
*335 _334_
*336 _335_
*337 _336_
*338 _337_
*339 _338_
*340 _339_
*341 _340_
*342 _341_
*343 _342_
*344 _343_
*345 _344_
*346 _345_
*347 _346_
*348 _347_
*349 _348_
*350 _349_
*351 _350_
*352 _351_
*353 _352_
*354 _353_
*355 _354_
*356 _355_
*357 _356_
*358 _357_
*359 _358_
*360 _359_
*361 _360_
*362 _361_
*363 _362_
*364 _363_
*365 _364_
*366 _365_
*367 _366_
*368 _367_
*369 _368_
*370 _369_
*371 _370_
*372 _371_
*373 _372_
*374 _373_
*375 _374_
*376 _375_
*377 _376_
*378 _377_
*379 _378_
*380 _379_
*381 _380_
*382 _381_
*383 _382_
*384 _383_
*385 _384_
*386 _385_
*387 _386_
*388 _387_
*389 _388_
*390 _389_
*391 _390_
*392 _391_
*393 _392_
*394 _393_
*395 _394_
*396 _395_
*397 _396_
*398 _397_
*399 _398_
*400 _399_
*401 _400_
*402 _401_
*403 _402_
*404 _403_
*405 _404_
*406 _405_
*407 _406_
*408 _407_
*409 _408_
*410 _409_
*411 _410_
*412 _411_
*413 _412_
*414 _413_
*415 _414_
*416 _415_
*417 _416_
*418 _417_
*419 _418_
*420 _419_
*421 _420_
*422 _421_
*423 _422_
*424 _423_
*425 _424_
*426 _425_
*427 _426_
*428 _427_
*429 _428_
*430 _429_
*431 _430_
*432 _431_
*433 _432_
*434 _433_
*435 _434_
*436 _435_
*437 _436_
*438 _437_
*439 _438_
*440 _439_
*441 _440_
*442 _441_
*443 _442_
*444 _443_
*445 _444_
*446 _445_
*447 _446_
*448 _447_
*449 _448_
*450 _449_
*451 _450_
*452 _451_
*453 _452_
*454 _453_
*455 _454_
*456 _455_
*457 _456_
*458 _457_
*459 _458_
*460 _459_
*461 _460_
*462 _461_
*463 _462_
*464 _463_
*465 _464_
*466 _465_
*467 _466_
*468 _467_
*469 _468_
*470 _469_
*471 _470_
*472 _471_
*473 _472_
*474 _473_
*475 _474_
*476 _475_
*477 _476_
*478 _477_
*479 _478_
*480 _479_
*481 _480_
*482 _481_
*483 _482_
*484 _483_
*485 _484_
*486 _485_
*487 clk
*488 ctrl\.state\.out\[1\]
*489 ctrl\.state\.out\[2\]
*490 dpath\.a_lt_b\$in0\[0\]
*491 dpath\.a_lt_b\$in0\[10\]
*492 dpath\.a_lt_b\$in0\[11\]
*493 dpath\.a_lt_b\$in0\[12\]
*494 dpath\.a_lt_b\$in0\[13\]
*495 dpath\.a_lt_b\$in0\[14\]
*496 dpath\.a_lt_b\$in0\[15\]
*497 dpath\.a_lt_b\$in0\[1\]
*498 dpath\.a_lt_b\$in0\[2\]
*499 dpath\.a_lt_b\$in0\[3\]
*500 dpath\.a_lt_b\$in0\[4\]
*501 dpath\.a_lt_b\$in0\[5\]
*502 dpath\.a_lt_b\$in0\[6\]
*503 dpath\.a_lt_b\$in0\[7\]
*504 dpath\.a_lt_b\$in0\[8\]
*505 dpath\.a_lt_b\$in0\[9\]
*506 dpath\.a_lt_b\$in1\[0\]
*507 dpath\.a_lt_b\$in1\[10\]
*508 dpath\.a_lt_b\$in1\[11\]
*509 dpath\.a_lt_b\$in1\[12\]
*510 dpath\.a_lt_b\$in1\[13\]
*511 dpath\.a_lt_b\$in1\[14\]
*512 dpath\.a_lt_b\$in1\[15\]
*513 dpath\.a_lt_b\$in1\[1\]
*514 dpath\.a_lt_b\$in1\[2\]
*515 dpath\.a_lt_b\$in1\[3\]
*516 dpath\.a_lt_b\$in1\[4\]
*517 dpath\.a_lt_b\$in1\[5\]
*518 dpath\.a_lt_b\$in1\[6\]
*519 dpath\.a_lt_b\$in1\[7\]
*520 dpath\.a_lt_b\$in1\[8\]
*521 dpath\.a_lt_b\$in1\[9\]
*522 req_msg[0]
*523 req_msg[10]
*524 req_msg[11]
*525 req_msg[12]
*526 req_msg[13]
*527 req_msg[14]
*528 req_msg[15]
*529 req_msg[16]
*530 req_msg[17]
*531 req_msg[18]
*532 req_msg[19]
*533 req_msg[1]
*534 req_msg[20]
*535 req_msg[21]
*536 req_msg[22]
*537 req_msg[23]
*538 req_msg[24]
*539 req_msg[25]
*540 req_msg[26]
*541 req_msg[27]
*542 req_msg[28]
*543 req_msg[29]
*544 req_msg[2]
*545 req_msg[30]
*546 req_msg[31]
*547 req_msg[3]
*548 req_msg[4]
*549 req_msg[5]
*550 req_msg[6]
*551 req_msg[7]
*552 req_msg[8]
*553 req_msg[9]
*554 net36
*555 req_val
*556 reset
*557 net37
*558 net38
*559 net39
*560 net40
*561 net41
*562 net42
*563 net43
*564 net44
*565 net45
*566 net46
*567 net47
*568 net48
*569 net49
*570 net50
*571 net51
*572 net52
*573 resp_rdy
*574 net53
*577 net1
*578 net2
*579 net3
*580 net4
*581 net5
*582 net6
*583 net7
*584 net8
*585 net9
*586 net10
*587 net11
*588 net12
*589 net13
*590 net14
*591 net15
*592 net16
*593 net17
*594 net18
*595 net19
*596 net20
*597 net21
*598 net22
*599 net23
*600 net24
*601 net25
*602 net26
*603 net27
*604 net28
*605 net29
*606 net30
*607 net31
*608 net32
*609 net33
*610 net34
*611 net35
*612 req_rdy
*613 resp_msg[0]
*614 resp_msg[10]
*615 resp_msg[11]
*616 resp_msg[12]
*617 resp_msg[13]
*618 resp_msg[14]
*619 resp_msg[15]
*620 resp_msg[1]
*621 resp_msg[2]
*622 resp_msg[3]
*623 resp_msg[4]
*624 resp_msg[5]
*625 resp_msg[6]
*626 resp_msg[7]
*627 resp_msg[8]
*628 resp_msg[9]
*629 resp_val
*630 clknet_0_clk
*631 clknet_2_0__leaf_clk
*632 clknet_2_1__leaf_clk
*633 clknet_2_2__leaf_clk
*634 clknet_2_3__leaf_clk
*635 net54
*636 net55
*637 net56
*638 net57
*639 net58
*640 net59
*641 net60
*642 net61
*643 net62
*644 net63
*645 net64
*646 net65
*647 net66
*648 net67
*649 net68
*650 net69
*651 net70
*652 net71
*653 net75
*654 net79
*655 net80
*656 net91
*657 net95
*658 net96
*659 net102
*660 net108
*661 net110
*662 net111
*663 net116
*664 net117
*665 net150
*666 net151
*667 net152
*668 net72
*669 net73
*670 net74
*671 net76
*672 net77
*673 net78
*674 net81
*675 net93
*676 net103
*677 net133
*678 net134
*679 net136
*680 _486_
*681 _487_
*682 _488_
*683 _489_
*684 _490_
*685 _491_
*686 _492_
*687 _493_
*688 _494_
*689 _495_
*690 _496_
*691 _497_
*692 _498_
*693 _499_
*694 _500_
*695 _501_
*696 _502_
*697 _503_
*698 _504_
*699 _505_
*700 _506_
*701 _507_
*702 _508_
*703 _509_
*704 _510_
*705 _511_
*706 _512_
*707 _513_
*708 _514_
*709 _515_
*710 _516_
*711 _517_
*712 _518_
*713 _519_
*714 _520_
*715 _521_
*716 _522_
*717 _523_
*718 _524_
*719 _525_
*720 rebuffer56
*721 _527_
*722 _528_
*723 _529_
*724 _530_
*725 _531_
*726 _532_
*727 _533_
*728 _534_
*729 _535_
*730 _536_
*731 _537_
*732 _538_
*733 _539_
*734 _540_
*735 _541_
*736 _542_
*737 _543_
*738 _544_
*739 _545_
*740 _546_
*741 _547_
*742 _548_
*743 _549_
*744 _550_
*745 _551_
*746 _552_
*747 _553_
*748 _554_
*749 _555_
*750 _556_
*751 _557_
*752 _558_
*753 _559_
*754 _560_
*755 _561_
*756 _562_
*757 _563_
*758 _564_
*759 _565_
*760 _566_
*761 _567_
*762 _568_
*763 _569_
*764 _570_
*765 _571_
*766 _572_
*767 _573_
*768 _574_
*769 _575_
*770 _576_
*771 _577_
*772 _578_
*773 _579_
*774 _580_
*775 _581_
*776 _582_
*777 _583_
*778 _584_
*779 _585_
*780 _586_
*781 _587_
*782 _588_
*783 _589_
*784 _590_
*785 _591_
*786 _592_
*787 _593_
*788 _594_
*789 _595_
*790 _596_
*791 _597_
*792 _598_
*793 _599_
*794 _600_
*795 _601_
*796 _602_
*797 _603_
*798 _604_
*799 _605_
*800 _606_
*801 _607_
*802 _608_
*803 _609_
*804 _610_
*805 _611_
*806 _612_
*807 _613_
*808 _614_
*809 _615_
*810 _616_
*811 _617_
*812 _618_
*813 _619_
*814 _620_
*815 _621_
*816 _622_
*817 _623_
*818 _624_
*819 _625_
*820 _626_
*821 _627_
*822 _628_
*823 _629_
*824 _630_
*825 _631_
*826 _632_
*827 _633_
*828 _634_
*829 _635_
*830 _636_
*831 _637_
*832 _638_
*833 _639_
*834 _640_
*835 _641_
*836 _642_
*837 _643_
*838 _644_
*839 _645_
*840 _646_
*841 _647_
*842 _648_
*843 _649_
*844 _650_
*845 _651_
*846 _652_
*847 _653_
*848 _654_
*849 _655_
*850 _656_
*851 _657_
*852 _658_
*853 _659_
*854 _660_
*855 _661_
*856 _662_
*857 _663_
*858 _664_
*859 _665_
*860 _666_
*861 _667_
*862 _668_
*863 _669_
*864 _670_
*865 _671_
*866 _672_
*867 _673_
*868 _674_
*869 _675_
*870 _676_
*871 _677_
*872 _678_
*873 _679_
*874 _680_
*875 _681_
*876 _682_
*877 _683_
*878 _684_
*879 _685_
*880 _686_
*881 _687_
*882 _688_
*883 _689_
*884 _690_
*885 _691_
*886 _692_
*887 _693_
*888 _694_
*889 _695_
*890 _696_
*891 _697_
*892 _698_
*893 _699_
*894 _700_
*895 _701_
*896 _702_
*897 _703_
*898 _704_
*899 _705_
*900 _706_
*901 _707_
*902 _708_
*903 _709_
*904 _710_
*905 _711_
*906 _712_
*907 _713_
*908 _714_
*909 _715_
*910 _716_
*911 _717_
*912 _718_
*913 _719_
*914 _720_
*915 _721_
*916 _722_
*917 _723_
*918 _724_
*919 _725_
*920 _726_
*921 _727_
*922 _728_
*923 _729_
*924 _730_
*925 _731_
*926 _732_
*927 _733_
*928 _734_
*929 _735_
*930 _736_
*931 _737_
*932 _738_
*933 _739_
*934 _740_
*935 _741_
*936 _742_
*937 _743_
*938 _744_
*939 _745_
*940 _746_
*941 _747_
*942 _748_
*943 _749_
*944 _750_
*945 _751_
*946 _752_
*947 _753_
*948 _754_
*949 _755_
*950 _756_
*951 _757_
*952 _758_
*953 _759_
*954 _760_
*955 _761_
*956 _762_
*957 _763_
*958 _764_
*959 _765_
*960 _766_
*961 _767_
*962 _768_
*963 _769_
*964 _770_
*965 _771_
*966 _772_
*967 _773_
*968 _774_
*969 _775_
*970 _776_
*971 _777_
*972 _778_
*973 _779_
*974 _780_
*975 _781_
*976 _782_
*977 _783_
*978 _784_
*979 _785_
*980 _786_
*981 _787_
*982 _788_
*983 _789_
*984 _790_
*985 _791_
*986 _792_
*987 _793_
*988 _794_
*989 _795_
*990 _796_
*991 _797_
*992 _798_
*993 _799_
*994 _800_
*995 _801_
*996 _802_
*997 _803_
*998 _804_
*999 _805_
*1000 _806_
*1001 _807_
*1002 _808_
*1003 _809_
*1004 _810_
*1005 _811_
*1006 _812_
*1007 _813_
*1008 _814_
*1009 _815_
*1010 _816_
*1011 _817_
*1012 _818_
*1013 _819_
*1014 _820_
*1015 _821_
*1016 _822_
*1017 _823_
*1018 _824_
*1019 _825_
*1020 _826_
*1021 _827_
*1022 _828_
*1023 _829_
*1024 _830_
*1025 _831_
*1026 _832_
*1027 _833_
*1028 _834_
*1029 _835_
*1030 _836_
*1031 _837_
*1032 _838_
*1033 _839_
*1034 _840_
*1035 _841_
*1036 _842_
*1037 _843_
*1038 _844_
*1039 _845_
*1040 _846_
*1041 _847_
*1042 _848_
*1043 _849_
*1044 _850_
*1045 _851_
*1046 _852_
*1047 _853_
*1048 _854_
*1049 _855_
*1050 _856_
*1051 _857_
*1052 _858_
*1053 _859_
*1054 _860_
*1055 _861_
*1056 _862_
*1057 _863_
*1058 _864_
*1059 _865_
*1060 _866_
*1061 _867_
*1062 _868_
*1063 _869_
*1064 _870_
*1065 _871_
*1066 _872_
*1067 _873_
*1068 _874_
*1069 _875_
*1070 _876_
*1071 _877_
*1072 _878_
*1073 _879_
*1074 _880_
*1075 _881_
*1076 _882_
*1077 _883_
*1078 _884_
*1079 _885_
*1080 _886_
*1081 _887_
*1082 _888_
*1083 _889_
*1084 _890_
*1085 _891_
*1086 _892_
*1087 _893_
*1088 _894_
*1089 _895_
*1090 _896_
*1091 _897_
*1092 _898_
*1093 _899_
*1094 _900_
*1095 _901_
*1096 _902_
*1097 _903_
*1098 _904_
*1099 _905_
*1100 _906_
*1101 _907_
*1102 _908_
*1103 _909_
*1104 _910_
*1105 _911_
*1106 _912_
*1107 _913_
*1108 _914_
*1109 _915_
*1110 _916_
*1111 _917_
*1112 _918_
*1113 _919_
*1114 _920_
*1115 _921_
*1116 _922_
*1117 _923_
*1118 _924_
*1119 _925_
*1120 _926_
*1121 _927_
*1122 _928_
*1123 _929_
*1124 _930_
*1125 _931_
*1126 _932_
*1127 _933_
*1128 _934_
*1129 _935_
*1130 _936_
*1131 _937_
*1132 _938_
*1133 _939_
*1134 _940_
*1135 _941_
*1136 _942_
*1137 _943_
*1138 _944_
*1139 _945_
*1140 _946_
*1141 _947_
*1142 _948_
*1143 _949_
*1144 _950_
*1145 _951_
*1146 _952_
*1147 _953_
*1148 ctrl\.state\.out\[0\]\$_DFF_P_
*1149 ctrl\.state\.out\[1\]\$_DFF_P_
*1150 ctrl\.state\.out\[2\]\$_DFF_P_
*1151 dpath\.a_reg\.out\[0\]\$_DFFE_PP_
*1152 dpath\.a_reg\.out\[10\]\$_DFFE_PP_
*1153 dpath\.a_reg\.out\[11\]\$_DFFE_PP_
*1154 dpath\.a_reg\.out\[12\]\$_DFFE_PP_
*1155 dpath\.a_reg\.out\[13\]\$_DFFE_PP_
*1156 dpath\.a_reg\.out\[14\]\$_DFFE_PP_
*1157 dpath\.a_reg\.out\[15\]\$_DFFE_PP_
*1158 dpath\.a_reg\.out\[1\]\$_DFFE_PP_
*1159 dpath\.a_reg\.out\[2\]\$_DFFE_PP_
*1160 dpath\.a_reg\.out\[3\]\$_DFFE_PP_
*1161 dpath\.a_reg\.out\[4\]\$_DFFE_PP_
*1162 dpath\.a_reg\.out\[5\]\$_DFFE_PP_
*1163 dpath\.a_reg\.out\[6\]\$_DFFE_PP_
*1164 dpath\.a_reg\.out\[7\]\$_DFFE_PP_
*1165 dpath\.a_reg\.out\[8\]\$_DFFE_PP_
*1166 dpath\.a_reg\.out\[9\]\$_DFFE_PP_
*1167 dpath\.b_reg\.out\[0\]\$_DFFE_PP_
*1168 dpath\.b_reg\.out\[10\]\$_DFFE_PP_
*1169 dpath\.b_reg\.out\[11\]\$_DFFE_PP_
*1170 dpath\.b_reg\.out\[12\]\$_DFFE_PP_
*1171 dpath\.b_reg\.out\[13\]\$_DFFE_PP_
*1172 dpath\.b_reg\.out\[14\]\$_DFFE_PP_
*1173 dpath\.b_reg\.out\[15\]\$_DFFE_PP_
*1174 dpath\.b_reg\.out\[1\]\$_DFFE_PP_
*1175 dpath\.b_reg\.out\[2\]\$_DFFE_PP_
*1176 dpath\.b_reg\.out\[3\]\$_DFFE_PP_
*1177 dpath\.b_reg\.out\[4\]\$_DFFE_PP_
*1178 dpath\.b_reg\.out\[5\]\$_DFFE_PP_
*1179 dpath\.b_reg\.out\[6\]\$_DFFE_PP_
*1180 dpath\.b_reg\.out\[7\]\$_DFFE_PP_
*1181 dpath\.b_reg\.out\[8\]\$_DFFE_PP_
*1182 dpath\.b_reg\.out\[9\]\$_DFFE_PP_
*1183 PHY_EDGE_ROW_0_Right_0
*1184 PHY_EDGE_ROW_1_Right_1
*1185 PHY_EDGE_ROW_2_Right_2
*1186 PHY_EDGE_ROW_3_Right_3
*1187 PHY_EDGE_ROW_4_Right_4
*1188 PHY_EDGE_ROW_5_Right_5
*1189 PHY_EDGE_ROW_6_Right_6
*1190 PHY_EDGE_ROW_7_Right_7
*1191 PHY_EDGE_ROW_8_Right_8
*1192 PHY_EDGE_ROW_9_Right_9
*1193 PHY_EDGE_ROW_10_Right_10
*1194 PHY_EDGE_ROW_11_Right_11
*1195 PHY_EDGE_ROW_12_Right_12
*1196 PHY_EDGE_ROW_13_Right_13
*1197 PHY_EDGE_ROW_14_Right_14
*1198 PHY_EDGE_ROW_15_Right_15
*1199 PHY_EDGE_ROW_16_Right_16
*1200 PHY_EDGE_ROW_17_Right_17
*1201 PHY_EDGE_ROW_18_Right_18
*1202 PHY_EDGE_ROW_19_Right_19
*1203 PHY_EDGE_ROW_20_Right_20
*1204 PHY_EDGE_ROW_21_Right_21
*1205 PHY_EDGE_ROW_22_Right_22
*1206 PHY_EDGE_ROW_23_Right_23
*1207 PHY_EDGE_ROW_0_Left_24
*1208 PHY_EDGE_ROW_1_Left_25
*1209 PHY_EDGE_ROW_2_Left_26
*1210 PHY_EDGE_ROW_3_Left_27
*1211 PHY_EDGE_ROW_4_Left_28
*1212 PHY_EDGE_ROW_5_Left_29
*1213 PHY_EDGE_ROW_6_Left_30
*1214 PHY_EDGE_ROW_7_Left_31
*1215 PHY_EDGE_ROW_8_Left_32
*1216 PHY_EDGE_ROW_9_Left_33
*1217 PHY_EDGE_ROW_10_Left_34
*1218 PHY_EDGE_ROW_11_Left_35
*1219 PHY_EDGE_ROW_12_Left_36
*1220 PHY_EDGE_ROW_13_Left_37
*1221 PHY_EDGE_ROW_14_Left_38
*1222 PHY_EDGE_ROW_15_Left_39
*1223 PHY_EDGE_ROW_16_Left_40
*1224 PHY_EDGE_ROW_17_Left_41
*1225 PHY_EDGE_ROW_18_Left_42
*1226 PHY_EDGE_ROW_19_Left_43
*1227 PHY_EDGE_ROW_20_Left_44
*1228 PHY_EDGE_ROW_21_Left_45
*1229 PHY_EDGE_ROW_22_Left_46
*1230 PHY_EDGE_ROW_23_Left_47
*1231 input1
*1232 input2
*1233 input3
*1234 input4
*1235 input5
*1236 input6
*1237 input7
*1238 input8
*1239 input9
*1240 input10
*1241 input11
*1242 input12
*1243 input13
*1244 input14
*1245 input15
*1246 input16
*1247 input17
*1248 input18
*1249 input19
*1250 input20
*1251 input21
*1252 input22
*1253 input23
*1254 input24
*1255 input25
*1256 input26
*1257 input27
*1258 input28
*1259 input29
*1260 input30
*1261 input31
*1262 input32
*1263 input33
*1264 input34
*1265 input35
*1266 output36
*1267 output37
*1268 output38
*1269 output39
*1270 output40
*1271 output41
*1272 output42
*1273 output43
*1274 output44
*1275 output45
*1276 output46
*1277 output47
*1278 output48
*1279 output49
*1280 output50
*1281 output51
*1282 output52
*1283 output53
*1284 clkbuf_0_clk
*1285 clkbuf_2_0__f_clk
*1286 clkbuf_2_1__f_clk
*1287 clkbuf_2_2__f_clk
*1288 clkbuf_2_3__f_clk
*1289 clkload0
*1290 clkload1
*1291 clkload2
*1292 rebuffer1
*1293 rebuffer2
*1294 rebuffer3
*1295 rebuffer4
*1296 rebuffer5
*1297 rebuffer6
*1298 rebuffer7
*1299 rebuffer8
*1300 rebuffer9
*1301 rebuffer10
*1302 rebuffer11
*1303 rebuffer12
*1304 rebuffer13
*1305 rebuffer14
*1306 rebuffer15
*1307 rebuffer16
*1308 rebuffer17
*1309 rebuffer18
*1310 rebuffer22
*1311 rebuffer26
*1312 rebuffer27
*1313 rebuffer38
*1314 rebuffer42
*1315 rebuffer43
*1316 rebuffer49
*1317 rebuffer55
*1318 rebuffer57
*1319 rebuffer58
*1320 rebuffer63
*1321 rebuffer64
*1322 rebuffer97
*1323 rebuffer98
*1324 rebuffer99
*1325 rebuffer19
*1326 rebuffer20
*1327 rebuffer21
*1328 rebuffer23
*1329 rebuffer24
*1330 rebuffer25
*1331 rebuffer28
*1332 rebuffer40
*1333 rebuffer50
*1334 clone77
*1335 clone78
*1336 rebuffer80
*1337 FILLER_0_1
*1338 FILLER_0_17
*1339 FILLER_0_177
*1340 FILLER_1_1
*1341 FILLER_1_90
*1342 FILLER_1_150
*1343 FILLER_1_177
*1344 FILLER_2_1
*1345 FILLER_2_3
*1346 FILLER_2_21
*1347 FILLER_2_25
*1348 FILLER_2_27
*1349 FILLER_2_39
*1350 FILLER_2_50
*1351 FILLER_2_60
*1352 FILLER_2_70
*1353 FILLER_2_106
*1354 FILLER_2_140
*1355 FILLER_2_174
*1356 FILLER_2_178
*1357 FILLER_3_1
*1358 FILLER_3_20
*1359 FILLER_3_28
*1360 FILLER_3_32
*1361 FILLER_3_34
*1362 FILLER_3_48
*1363 FILLER_3_90
*1364 FILLER_3_177
*1365 FILLER_4_1
*1366 FILLER_4_5
*1367 FILLER_4_9
*1368 FILLER_4_13
*1369 FILLER_4_19
*1370 FILLER_4_27
*1371 FILLER_4_32
*1372 FILLER_4_48
*1373 FILLER_4_75
*1374 FILLER_4_84
*1375 FILLER_4_96
*1376 FILLER_4_114
*1377 FILLER_4_177
*1378 FILLER_5_1
*1379 FILLER_5_3
*1380 FILLER_5_7
*1381 FILLER_5_15
*1382 FILLER_5_37
*1383 FILLER_5_41
*1384 FILLER_5_54
*1385 FILLER_5_56
*1386 FILLER_5_97
*1387 FILLER_5_102
*1388 FILLER_5_152
*1389 FILLER_5_176
*1390 FILLER_5_178
*1391 FILLER_6_1
*1392 FILLER_6_9
*1393 FILLER_6_11
*1394 FILLER_6_15
*1395 FILLER_6_31
*1396 FILLER_6_35
*1397 FILLER_6_43
*1398 FILLER_6_45
*1399 FILLER_6_55
*1400 FILLER_6_83
*1401 FILLER_6_88
*1402 FILLER_6_93
*1403 FILLER_6_99
*1404 FILLER_6_117
*1405 FILLER_6_170
*1406 FILLER_6_178
*1407 FILLER_7_1
*1408 FILLER_7_8
*1409 FILLER_7_13
*1410 FILLER_7_32
*1411 FILLER_7_52
*1412 FILLER_7_56
*1413 FILLER_7_65
*1414 FILLER_7_73
*1415 FILLER_7_81
*1416 FILLER_7_118
*1417 FILLER_7_176
*1418 FILLER_7_178
*1419 FILLER_8_20
*1420 FILLER_8_28
*1421 FILLER_8_39
*1422 FILLER_8_61
*1423 FILLER_8_77
*1424 FILLER_8_79
*1425 FILLER_8_83
*1426 FILLER_8_111
*1427 FILLER_8_128
*1428 FILLER_8_147
*1429 FILLER_8_177
*1430 FILLER_9_1
*1431 FILLER_9_6
*1432 FILLER_9_11
*1433 FILLER_9_20
*1434 FILLER_9_25
*1435 FILLER_9_31
*1436 FILLER_9_36
*1437 FILLER_9_55
*1438 FILLER_9_59
*1439 FILLER_9_67
*1440 FILLER_9_73
*1441 FILLER_9_77
*1442 FILLER_9_82
*1443 FILLER_9_101
*1444 FILLER_9_118
*1445 FILLER_9_130
*1446 FILLER_10_4
*1447 FILLER_10_8
*1448 FILLER_10_13
*1449 FILLER_10_29
*1450 FILLER_10_52
*1451 FILLER_10_60
*1452 FILLER_10_85
*1453 FILLER_10_93
*1454 FILLER_10_138
*1455 FILLER_11_1
*1456 FILLER_11_3
*1457 FILLER_11_21
*1458 FILLER_11_25
*1459 FILLER_11_27
*1460 FILLER_11_35
*1461 FILLER_11_47
*1462 FILLER_11_63
*1463 FILLER_11_93
*1464 FILLER_11_101
*1465 FILLER_11_155
*1466 FILLER_12_1
*1467 FILLER_12_12
*1468 FILLER_12_89
*1469 FILLER_12_95
*1470 FILLER_12_99
*1471 FILLER_12_101
*1472 FILLER_12_117
*1473 FILLER_12_174
*1474 FILLER_12_178
*1475 FILLER_13_1
*1476 FILLER_13_9
*1477 FILLER_13_13
*1478 FILLER_13_15
*1479 FILLER_13_33
*1480 FILLER_13_80
*1481 FILLER_13_85
*1482 FILLER_13_163
*1483 FILLER_14_1
*1484 FILLER_14_17
*1485 FILLER_14_43
*1486 FILLER_14_66
*1487 FILLER_14_77
*1488 FILLER_14_86
*1489 FILLER_14_103
*1490 FILLER_14_112
*1491 FILLER_14_142
*1492 FILLER_14_159
*1493 FILLER_14_175
*1494 FILLER_15_4
*1495 FILLER_15_26
*1496 FILLER_15_30
*1497 FILLER_15_41
*1498 FILLER_15_45
*1499 FILLER_15_157
*1500 FILLER_15_173
*1501 FILLER_15_177
*1502 FILLER_16_4
*1503 FILLER_16_20
*1504 FILLER_16_22
*1505 FILLER_16_31
*1506 FILLER_16_35
*1507 FILLER_16_100
*1508 FILLER_16_141
*1509 FILLER_16_149
*1510 FILLER_16_157
*1511 FILLER_16_173
*1512 FILLER_16_177
*1513 FILLER_17_1
*1514 FILLER_17_5
*1515 FILLER_17_9
*1516 FILLER_17_13
*1517 FILLER_17_32
*1518 FILLER_17_49
*1519 FILLER_17_60
*1520 FILLER_17_79
*1521 FILLER_17_83
*1522 FILLER_17_85
*1523 FILLER_17_89
*1524 FILLER_17_105
*1525 FILLER_17_117
*1526 FILLER_17_148
*1527 FILLER_17_156
*1528 FILLER_17_172
*1529 FILLER_17_176
*1530 FILLER_17_178
*1531 FILLER_18_1
*1532 FILLER_18_17
*1533 FILLER_18_21
*1534 FILLER_18_23
*1535 FILLER_18_27
*1536 FILLER_18_63
*1537 FILLER_18_83
*1538 FILLER_18_90
*1539 FILLER_18_107
*1540 FILLER_18_138
*1541 FILLER_18_145
*1542 FILLER_18_154
*1543 FILLER_18_170
*1544 FILLER_18_178
*1545 FILLER_19_1
*1546 FILLER_19_9
*1547 FILLER_19_11
*1548 FILLER_19_72
*1549 FILLER_19_89
*1550 FILLER_19_141
*1551 FILLER_19_147
*1552 FILLER_19_154
*1553 FILLER_19_170
*1554 FILLER_19_178
*1555 FILLER_20_1
*1556 FILLER_20_17
*1557 FILLER_20_25
*1558 FILLER_20_33
*1559 FILLER_20_41
*1560 FILLER_20_43
*1561 FILLER_20_54
*1562 FILLER_20_63
*1563 FILLER_20_92
*1564 FILLER_20_101
*1565 FILLER_20_110
*1566 FILLER_20_120
*1567 FILLER_20_124
*1568 FILLER_20_126
*1569 FILLER_20_143
*1570 FILLER_20_175
*1571 FILLER_21_1
*1572 FILLER_21_17
*1573 FILLER_21_25
*1574 FILLER_21_34
*1575 FILLER_21_38
*1576 FILLER_21_40
*1577 FILLER_21_44
*1578 FILLER_21_52
*1579 FILLER_21_63
*1580 FILLER_21_72
*1581 FILLER_21_87
*1582 FILLER_21_91
*1583 FILLER_21_95
*1584 FILLER_21_119
*1585 FILLER_21_140
*1586 FILLER_21_172
*1587 FILLER_21_176
*1588 FILLER_21_178
*1589 FILLER_22_1
*1590 FILLER_22_17
*1591 FILLER_22_35
*1592 FILLER_22_54
*1593 FILLER_22_77
*1594 FILLER_22_111
*1595 FILLER_22_113
*1596 FILLER_22_121
*1597 FILLER_22_141
*1598 FILLER_22_173
*1599 FILLER_22_177
*1600 FILLER_23_1
*1601 FILLER_23_17
*1602 FILLER_23_21
*1603 FILLER_23_23
*1604 FILLER_23_31
*1605 FILLER_23_35
*1606 FILLER_23_52
*1607 FILLER_23_60
*1608 FILLER_23_68
*1609 FILLER_23_70
*1610 FILLER_23_76
*1611 FILLER_23_81
*1612 FILLER_23_85
*1613 FILLER_23_93
*1614 FILLER_23_101
*1615 FILLER_23_111
*1616 FILLER_23_121
*1617 FILLER_23_153
*1618 FILLER_23_169
*1619 FILLER_23_177

*PORTS
clk I
req_msg[0] I
req_msg[10] I
req_msg[11] I
req_msg[12] I
req_msg[13] I
req_msg[14] I
req_msg[15] I
req_msg[16] I
req_msg[17] I
req_msg[18] I
req_msg[19] I
req_msg[1] I
req_msg[20] I
req_msg[21] I
req_msg[22] I
req_msg[23] I
req_msg[24] I
req_msg[25] I
req_msg[26] I
req_msg[27] I
req_msg[28] I
req_msg[29] I
req_msg[2] I
req_msg[30] I
req_msg[31] I
req_msg[3] I
req_msg[4] I
req_msg[5] I
req_msg[6] I
req_msg[7] I
req_msg[8] I
req_msg[9] I
req_rdy O
req_val I
reset I
resp_msg[0] O
resp_msg[10] O
resp_msg[11] O
resp_msg[12] O
resp_msg[13] O
resp_msg[14] O
resp_msg[15] O
resp_msg[1] O
resp_msg[2] O
resp_msg[3] O
resp_msg[4] O
resp_msg[5] O
resp_msg[6] O
resp_msg[7] O
resp_msg[8] O
resp_msg[9] O
resp_rdy I
resp_val O

*D_NET *1 0.000138992
*CONN
*I *1148:D I *D DFF_X1
*I *715:ZN O *D OAI21_X1
*CAP
1 *1148:D 6.5141e-05
2 *715:ZN 6.5141e-05
3 *1148:D *1148:CK 2.14856e-06
4 *1148:D *609:16 6.56185e-06
*RES
1 *715:ZN *1148:D 17.1071 
*END

*D_NET *2 0.000195391
*CONN
*I *1149:D I *D DFF_X1
*I *718:ZN O *D OAI21_X1
*CAP
1 *1149:D 6.01942e-05
2 *718:ZN 6.01942e-05
3 *1149:D *711:B2 2.14856e-06
4 *1149:D *718:B1 3.34038e-05
5 *1149:D *1263:A 8.58678e-06
6 *1149:D *574:8 0
7 *1149:D *609:16 3.55053e-06
8 *1149:D *610:10 2.73127e-05
*RES
1 *718:ZN *1149:D 27.7857 
*END

*D_NET *3 0.000315343
*CONN
*I *1150:D I *D DFF_X1
*I *708:ZN O *D OAI22_X1
*CAP
1 *1150:D 7.10996e-05
2 *708:ZN 7.10996e-05
3 *1150:D *716:A2 3.9558e-05
4 *1150:D *717:A 4.50336e-05
5 *1150:D *718:B1 4.92863e-06
6 *1150:D *68:68 5.41806e-05
7 *1150:D *631:33 2.94435e-05
*RES
1 *708:ZN *1150:D 30.6071 
*END

*D_NET *4 0.000531797
*CONN
*I *829:A2 I *D NAND2_X2
*I *709:A I *D BUF_X4
*I *1148:QN O *D DFF_X1
*CAP
1 *829:A2 4.40824e-05
2 *709:A 0
3 *1148:QN 6.69225e-05
4 *4:8 0.000111005
5 *829:A2 *710:A3 7.64734e-06
6 *829:A2 *1080:B2 0.000157021
7 *829:A2 *1081:A1 0.000130782
8 *829:A2 *1081:A2 1.50869e-06
9 *829:A2 *39:10 1.11168e-06
10 *829:A2 *65:34 9.24246e-06
11 *829:A2 *398:12 1.4293e-06
12 *4:8 *707:A1 0
13 *4:8 *710:A3 7.66675e-07
14 *4:8 *1081:A2 2.77917e-07
15 *4:8 *1144:A2 0
*RES
1 *1148:QN *4:8 17.0357 
2 *4:8 *709:A 10 
3 *4:8 *829:A2 20.4286 
*END

*D_NET *5 0.000270407
*CONN
*I *1151:D I *D DFF_X1
*I *841:ZN O *D NAND2_X1
*CAP
1 *1151:D 9.15026e-05
2 *841:ZN 9.15026e-05
3 *1151:D *840:B2 0
4 *1151:D *841:A2 6.75411e-05
5 *1151:D *1084:B 0
6 *1151:D *68:68 8.26038e-06
7 *1151:D *490:26 1.96575e-06
8 *1151:D *557:22 6.54273e-06
9 *1151:D *631:22 3.09143e-06
*RES
1 *841:ZN *1151:D 30.5 
*END

*D_NET *6 0.000339324
*CONN
*I *1152:D I *D DFF_X1
*I *863:ZN O *D NAND2_X1
*CAP
1 *1152:D 0.000110327
2 *863:ZN 0.000110327
3 *1152:D *862:B2 6.25844e-05
4 *1152:D *863:A2 4.24381e-05
5 *1152:D *911:B2 0
6 *1152:D *1152:CK 9.57492e-07
7 *1152:D *68:50 0
8 *1152:D *491:19 9.56336e-06
9 *1152:D *578:14 4.02507e-07
10 *1152:D *632:20 2.72417e-06
*RES
1 *863:ZN *1152:D 33.8929 
*END

*D_NET *7 0.000440277
*CONN
*I *1153:D I *D DFF_X1
*I *912:ZN O *D NAND2_X1
*CAP
1 *1153:D 9.36364e-05
2 *912:ZN 9.36364e-05
3 *1153:D *910:A2 4.32319e-05
4 *1153:D *911:A 2.72171e-06
5 *1153:D *912:A2 4.025e-07
6 *1153:D *1096:A2 0
7 *1153:D *1152:CK 1.72405e-05
8 *1153:D *68:50 2.08098e-06
9 *1153:D *190:103 6.78878e-05
10 *1153:D *492:23 2.51997e-05
11 *1153:D *632:24 5.56848e-05
12 *1153:D *632:39 3.85541e-05
*RES
1 *912:ZN *1153:D 33.5 
*END

*D_NET *8 0.000371408
*CONN
*I *1154:D I *D DFF_X1
*I *932:ZN O *D NAND2_X1
*CAP
1 *1154:D 0.000106255
2 *932:ZN 0.000106255
3 *1154:D *680:A 0
4 *1154:D *774:A 8.63927e-06
5 *1154:D *908:A1 0
6 *1154:D *928:A1 3.01743e-06
7 *1154:D *928:A2 3.19164e-07
8 *1154:D *929:A1 2.93339e-05
9 *1154:D *930:A2 0
10 *1154:D *932:A1 5.11191e-06
11 *1154:D *1096:A2 0
12 *1154:D *1154:CK 2.56243e-06
13 *1154:D *1300:A 2.49684e-05
14 *1154:D *65:74 1.52083e-06
15 *1154:D *67:101 6.55634e-05
16 *1154:D *187:65 1.77822e-05
17 *1154:D *187:76 0
18 *1154:D *255:24 7.94048e-08
*RES
1 *932:ZN *1154:D 33.6071 
*END

*D_NET *9 0.000239234
*CONN
*I *1155:D I *D DFF_X1
*I *960:ZN O *D NAND2_X1
*CAP
1 *1155:D 0.000105323
2 *960:ZN 0.000105323
3 *1155:D *931:B2 1.39294e-06
4 *1155:D *959:A 1.11357e-05
5 *1155:D *959:B1 3.01743e-06
6 *1155:D *960:A1 1.88334e-06
7 *1155:D *1252:A 4.7169e-06
8 *1155:D *632:47 6.44217e-06
*RES
1 *960:ZN *1155:D 31.6429 
*END

*D_NET *10 0.000134361
*CONN
*I *1156:D I *D DFF_X1
*I *981:ZN O *D NAND2_X1
*CAP
1 *1156:D 3.73053e-05
2 *981:ZN 3.73053e-05
3 *1156:D *981:A1 4.33544e-05
4 *1156:D *981:A2 1.63962e-05
*RES
1 *981:ZN *1156:D 15.1786 
*END

*D_NET *11 0.000175877
*CONN
*I *1157:D I *D DFF_X1
*I *1001:ZN O *D NAND2_X1
*CAP
1 *1157:D 8.16962e-05
2 *1001:ZN 8.16962e-05
3 *1157:D *1001:A1 1.11168e-06
4 *1157:D *68:142 0
5 *1157:D *632:47 9.5779e-06
6 *1157:D *632:56 1.79544e-06
*RES
1 *1001:ZN *1157:D 28.25 
*END

*D_NET *12 0.00023987
*CONN
*I *1158:D I *D DFF_X1
*I *1009:ZN O *D NAND2_X1
*CAP
1 *1158:D 0.000107157
2 *1009:ZN 0.000107157
3 *1158:D *1009:A1 2.75346e-06
4 *1158:D *1016:A1 1.9312e-05
5 *1158:D *1016:A2 3.49085e-06
6 *1158:D *1158:CK 0
*RES
1 *1009:ZN *1158:D 30.7857 
*END

*D_NET *13 0.000117607
*CONN
*I *1159:D I *D DFF_X1
*I *1016:ZN O *D NAND2_X1
*CAP
1 *1159:D 3.12051e-05
2 *1016:ZN 3.12051e-05
3 *1159:D *1015:B2 1.26998e-05
4 *1159:D *1016:A2 1.46241e-05
5 *1159:D *1158:CK 2.57883e-05
6 *1159:D *588:14 2.08416e-06
*RES
1 *1016:ZN *1159:D 24.8929 
*END

*D_NET *14 0.000429015
*CONN
*I *1160:D I *D DFF_X1
*I *1023:ZN O *D NAND2_X1
*CAP
1 *1160:D 0.000121664
2 *1023:ZN 0.000121664
3 *1160:D resp_msg[0] 1.43544e-05
4 *1160:D resp_msg[1] 2.94634e-05
5 *1160:D *1015:B2 7.62912e-06
6 *1160:D *1021:A2 1.80259e-05
7 *1160:D *1023:A1 2.78769e-05
8 *1160:D *1023:A2 3.48559e-05
9 *1160:D *1158:CK 1.39295e-06
10 *1160:D *1274:A 1.93093e-05
11 *1160:D *1275:A 2.70438e-05
12 *1160:D *557:22 0
13 *1160:D *602:10 0
14 *1160:D *631:70 5.73629e-06
*RES
1 *1023:ZN *1160:D 36.4286 
*END

*D_NET *15 0.000808942
*CONN
*I *1161:D I *D DFF_X1
*I *1030:ZN O *D NAND2_X1
*CAP
1 *1161:D 0
2 *1030:ZN 0.000128398
3 *15:20 0.000128398
4 *15:20 *847:A 4.13342e-05
5 *15:20 *939:A2 4.0945e-05
6 *15:20 *1027:A2 3.08924e-05
7 *15:20 *1029:B2 0
8 *15:20 *1161:CK 7.16188e-07
9 *15:20 *1278:A 0
10 *15:20 *1331:A 0.000163397
11 *15:20 *55:33 3.24108e-07