*SPEF "ieee 1481-1999"
*DESIGN "pi_switch"
*DATE "00:00:23 Monday July 07, 2025"
*VENDOR "The OpenROAD Project"
*PROGRAM "OpenROAD"
*VERSION "v2.0-21872-gd51df1dea5"
*DESIGN_FLOW "NAME_SCOPE LOCAL" "PIN_CAP NONE"
*DIVIDER /
*DELIMITER :
*BUS_DELIMITER []
*T_UNIT 1 NS
*C_UNIT 1 PF
*R_UNIT 1 OHM
*L_UNIT 1 HENRY

*NAME_MAP
*1 _0000_
*2 _0001_
*3 _0002_
*4 _0003_
*5 _0004_
*6 _0005_
*7 _0006_
*8 _0007_
*9 _0008_
*10 _0009_
*11 _0010_
*12 _0011_
*13 _0012_
*14 _0013_
*15 _0014_
*16 _0015_
*17 _0016_
*18 _0017_
*19 _0018_
*20 _0019_
*21 _0020_
*22 _0021_
*23 _0022_
*24 _0023_
*25 _0024_
*26 _0025_
*27 _0026_
*28 _0027_
*29 _0028_
*30 _0029_
*31 _0030_
*32 _0031_
*33 _0032_
*34 _0033_
*35 _0034_
*36 _0035_
*37 _0036_
*38 _0037_
*39 _0038_
*40 _0039_
*41 _0040_
*42 _0041_
*43 _0042_
*44 _0043_
*45 _0044_
*46 _0045_
*47 _0046_
*48 _0047_
*49 _0048_
*50 _0049_
*51 _0050_
*52 _0051_
*53 _0052_
*54 _0053_
*55 _0054_
*56 _0055_
*57 _0056_
*58 _0057_
*59 _0058_
*60 _0059_
*61 _0060_
*62 _0061_
*63 _0062_
*64 _0063_
*65 _0064_
*66 _0065_
*67 _0066_
*68 _0067_
*69 _0068_
*70 _0069_
*71 _0070_
*72 _0071_
*73 _0072_
*74 _0073_
*75 _0074_
*76 _0075_
*77 _0076_
*78 _0077_
*79 _0078_
*80 _0079_
*81 _0080_
*82 _0081_
*83 _0082_
*84 _0083_
*85 _0084_
*86 _0085_
*87 _0086_
*88 _0087_
*89 _0088_
*90 _0089_
*91 _0090_
*92 _0091_
*93 _0092_
*94 _0093_
*95 _0094_
*96 _0095_
*97 _0096_
*98 _0097_
*99 _0098_
*100 _0099_
*101 _0100_
*102 _0101_
*103 _0102_
*104 _0103_
*105 _0104_
*106 _0105_
*107 _0106_
*108 _0107_
*109 _0108_
*110 _0109_
*111 _0110_
*112 _0111_
*113 _0112_
*114 _0113_
*115 _0114_
*116 _0115_
*117 _0116_
*118 _0117_
*119 _0118_
*120 _0119_
*121 _0120_
*122 _0121_
*123 _0122_
*124 _0123_
*125 _0124_
*126 _0125_
*127 _0126_
*128 _0127_
*129 _0128_
*130 _0129_
*131 _0130_
*132 _0131_
*133 _0132_
*134 _0133_
*135 _0134_
*136 _0135_
*137 _0136_
*138 _0137_
*139 _0138_
*140 _0139_
*141 _0140_
*142 _0141_
*143 _0142_
*144 _0143_
*145 _0144_
*146 _0145_
*147 _0146_
*148 _0147_
*149 _0148_
*150 _0149_
*151 _0150_
*152 _0151_
*153 _0152_
*154 _0153_
*155 _0154_
*156 _0155_
*157 _0156_
*158 _0157_
*159 _0158_
*160 _0159_
*161 _0160_
*162 _0161_
*163 _0162_
*164 _0163_
*165 _0164_
*166 _0165_
*167 _0166_
*168 _0167_
*169 _0168_
*170 _0169_
*171 _0170_
*172 _0171_
*173 _0172_
*174 _0173_
*175 _0174_
*176 _0175_
*177 _0176_
*178 _0177_
*179 _0178_
*180 _0179_
*181 _0180_
*182 _0181_
*183 _0182_
*184 _0183_
*185 _0184_
*186 _0185_
*187 _0186_
*188 _0187_
*189 _0188_
*190 _0189_
*191 _0190_
*192 _0191_
*193 _0192_
*194 _0193_
*195 _0194_
*196 _0195_
*197 _0196_
*198 _0197_
*199 _0198_
*200 _0199_
*201 _0200_
*202 _0201_
*203 _0202_
*204 _0203_
*205 _0204_
*206 _0205_
*207 _0206_
*208 _0207_
*209 _0208_
*210 _0209_
*211 _0210_
*212 _0211_
*213 _0212_
*214 _0213_
*215 _0214_
*216 _0215_
*217 _0216_
*218 _0217_
*219 _0218_
*220 _0219_
*221 _0220_
*222 _0221_
*223 _0222_
*224 _0223_
*225 _0224_
*226 _0225_
*227 _0226_
*228 _0227_
*229 _0228_
*230 _0229_
*231 _0230_
*232 _0231_
*233 _0232_
*234 _0233_
*235 _0234_
*236 _0235_
*237 _0236_
*238 _0237_
*239 _0238_
*240 _0239_
*241 _0240_
*242 _0241_
*243 _0242_
*244 _0243_
*245 _0244_
*246 _0245_
*247 _0246_
*248 _0247_
*249 _0248_
*250 _0249_
*251 _0250_
*252 _0251_
*253 _0252_
*254 _0253_
*255 _0254_
*256 _0255_
*257 _0256_
*258 _0257_
*259 _0258_
*260 _0259_
*261 _0260_
*262 _0261_
*263 _0262_
*264 _0263_
*265 _0264_
*266 _0265_
*267 _0266_
*268 _0267_
*269 _0268_
*270 _0269_
*271 _0270_
*272 _0271_
*273 _0272_
*274 _0273_
*275 _0274_
*276 _0275_
*277 _0276_
*278 _0277_
*279 _0278_
*280 _0279_
*281 _0280_
*282 _0281_
*283 _0282_
*284 _0283_
*285 _0284_
*286 _0285_
*287 _0286_
*288 _0287_
*289 _0288_
*290 _0289_
*291 _0290_
*292 _0291_
*293 _0292_
*294 _0293_
*295 _0294_
*296 _0295_
*297 _0296_
*298 _0297_
*299 _0298_
*300 _0299_
*301 _0300_
*302 _0301_
*303 _0302_
*304 _0303_
*305 _0304_
*306 _0305_
*307 _0306_
*308 _0307_
*309 _0308_
*310 _0309_
*311 _0310_
*312 _0311_
*313 _0312_
*314 _0313_
*315 _0314_
*316 _0315_
*317 _0316_
*318 _0317_
*319 _0318_
*320 _0319_
*321 _0320_
*322 _0321_
*323 _0322_
*324 _0323_
*325 _0324_
*326 _0325_
*327 _0326_
*328 _0327_
*329 _0328_
*330 _0329_
*331 _0330_
*332 _0331_
*333 _0332_
*334 _0333_
*335 _0334_
*336 _0335_
*337 _0336_
*338 _0337_
*339 _0338_
*340 _0339_
*341 _0340_
*342 _0341_
*343 _0342_
*344 _0343_
*345 _0344_
*346 _0345_
*347 _0346_
*348 _0347_
*349 _0348_
*350 _0349_
*351 _0350_
*352 _0351_
*353 _0352_
*354 _0353_
*355 _0354_
*356 _0355_
*357 _0356_
*358 _0357_
*359 _0358_
*360 _0359_
*361 _0360_
*362 _0361_
*363 _0362_
*364 _0363_
*365 _0364_
*366 _0365_
*367 _0366_
*368 _0367_
*369 _0368_
*370 _0369_
*371 _0370_
*372 _0371_
*373 _0372_
*374 _0373_
*375 _0374_
*376 _0375_
*377 _0376_
*378 _0377_
*379 _0378_
*380 _0379_
*381 _0380_
*382 _0381_
*383 _0382_
*384 _0383_
*385 _0384_
*386 _0385_
*387 _0386_
*388 _0387_
*389 _0388_
*390 _0389_
*391 _0390_
*392 _0391_
*393 _0392_
*394 _0393_
*395 _0394_
*396 _0395_
*397 _0396_
*398 _0397_
*399 _0398_
*400 _0399_
*401 _0400_
*402 _0401_
*403 _0402_
*404 _0403_
*405 _0404_
*406 _0405_
*407 _0406_
*408 _0407_
*409 _0408_
*410 _0409_
*411 _0410_
*412 _0411_
*413 _0412_
*414 _0413_
*415 _0414_
*416 _0415_
*417 _0416_
*418 _0417_
*419 _0418_
*420 _0419_
*421 _0420_
*422 _0421_
*423 _0422_
*424 _0423_
*425 _0424_
*426 _0425_
*427 _0426_
*428 _0427_
*429 _0428_
*430 _0429_
*431 _0430_
*432 _0431_
*433 _0432_
*434 _0433_
*435 _0434_
*436 _0435_
*437 _0436_
*438 _0437_
*439 _0438_
*440 _0439_
*441 _0440_
*442 _0441_
*443 _0442_
*444 _0443_
*445 _0444_
*446 _0445_
*447 _0446_
*448 _0447_
*449 _0448_
*450 _0449_
*451 _0450_
*452 _0451_
*453 _0452_
*454 _0453_
*455 _0454_
*456 _0455_
*457 _0456_
*458 _0457_
*459 _0458_
*460 _0459_
*461 _0460_
*462 _0461_
*463 _0462_
*464 _0463_
*465 _0464_
*466 _0465_
*467 _0466_
*468 _0467_
*469 _0468_
*470 _0469_
*471 _0470_
*472 _0471_
*473 _0472_
*474 _0473_
*475 _0474_
*476 _0475_
*477 _0476_
*478 _0477_
*479 _0478_
*480 _0479_
*481 _0480_
*482 _0481_
*483 _0482_
*484 _0483_
*485 _0484_
*486 _0485_
*487 _0486_
*488 _0487_
*489 _0488_
*490 _0489_
*491 _0490_
*492 _0491_
*493 _0492_
*494 _0493_
*495 _0494_
*496 _0495_
*497 _0496_
*498 _0497_
*499 _0498_
*500 _0499_
*501 _0500_
*502 _0501_
*503 _0502_
*504 _0503_
*505 _0504_
*506 _0505_
*507 _0506_
*508 _0507_
*509 _0508_
*510 _0509_
*511 _0510_
*512 _0511_
*513 _0512_
*514 _0513_
*515 _0514_
*516 _0515_
*517 _0516_
*518 _0517_
*519 _0518_
*520 _0519_
*521 _0520_
*522 _0521_
*523 _0522_
*524 _0523_
*525 _0524_
*526 _0525_
*527 _0526_
*528 _0527_
*529 _0528_
*530 _0529_
*531 _0530_
*532 _0531_
*533 _0532_
*534 _0533_
*535 _0534_
*536 _0535_
*537 _0536_
*538 _0537_
*539 _0538_
*540 _0539_
*541 _0540_
*542 _0541_
*543 _0542_
*544 _0543_
*545 _0544_
*546 _0545_
*547 _0546_
*548 _0547_
*549 _0548_
*550 _0549_
*551 _0550_
*552 _0551_
*553 _0552_
*554 _0553_
*555 _0554_
*556 _0555_
*557 _0556_
*558 _0557_
*559 _0558_
*560 _0559_
*561 _0560_
*562 _0561_
*563 _0562_
*564 _0563_
*565 _0564_
*566 _0565_
*567 _0566_
*568 _0567_
*569 _0568_
*570 _0569_
*571 _0570_
*572 _0571_
*573 _0572_
*574 _0573_
*575 _0574_
*576 _0575_
*577 _0576_
*578 _0577_
*579 _0578_
*580 clknet_0_clk
*581 ce
*582 clk
*583 net142
*584 l_i[0]
*585 l_i[10]
*586 l_i[11]
*587 l_i[12]
*588 l_i[13]
*589 l_i[14]
*590 l_i[15]
*591 l_i[16]
*592 l_i[17]
*593 l_i[18]
*594 l_i[19]
*595 l_i[1]
*596 l_i[20]
*597 l_i[21]
*598 l_i[22]
*599 l_i[23]
*600 l_i[24]
*601 l_i[25]
*602 l_i[26]
*603 l_i[27]
*604 l_i[28]
*605 l_i[29]
*606 l_i[2]
*607 l_i[30]
*608 l_i[31]
*609 l_i[32]
*610 l_i[33]
*611 l_i[34]
*612 l_i[35]
*613 l_i[36]
*614 l_i[3]
*615 l_i[4]
*616 l_i[5]
*617 l_i[6]
*618 l_i[7]
*619 l_i[8]
*620 l_i[9]
*621 net143
*622 net144
*623 net145
*624 net146
*625 net147
*626 net148
*627 net149
*628 net150
*629 net151
*630 net152
*631 net153
*632 net154
*633 net155
*634 net156
*635 net157
*636 net158
*637 net159
*638 net160
*639 net161
*640 net162
*641 net163
*642 net164
*643 net165
*644 net166
*645 net167
*646 net168
*647 net169
*648 net170
*649 l_o[35]
*650 net171
*651 net172
*652 net173
*653 net174
*654 net175
*655 net176
*656 net177
*657 net178
*658 r_i[0]
*659 r_i[10]
*660 r_i[11]
*661 r_i[12]
*662 r_i[13]
*663 r_i[14]
*664 r_i[15]
*665 r_i[16]
*666 r_i[17]
*667 r_i[18]
*668 r_i[19]
*669 r_i[1]
*670 r_i[20]
*671 r_i[21]
*672 r_i[22]
*673 r_i[23]
*674 r_i[24]
*675 r_i[25]
*676 r_i[26]
*677 r_i[27]
*678 r_i[28]
*679 r_i[29]
*680 r_i[2]
*681 r_i[30]
*682 r_i[31]
*683 r_i[32]
*684 r_i[33]
*685 r_i[34]
*686 r_i[35]
*687 r_i[36]
*688 r_i[3]
*689 r_i[4]
*690 r_i[5]
*691 r_i[6]
*692 r_i[7]
*693 r_i[8]
*694 r_i[9]
*695 net179
*696 net180
*697 net181
*698 net182
*699 net183
*700 net184
*701 net185
*702 net186
*703 net187
*704 net188
*705 net189
*706 net190
*707 net191
*708 net192
*709 net193
*710 net194
*711 net195
*712 net196
*713 net197
*714 net198
*715 net199
*716 net200
*717 net201
*718 net202
*719 net203
*720 net204
*721 net205
*722 net206
*723 r_o[35]
*724 net207
*725 net208
*726 net209
*727 net210
*728 net211
*729 net212
*730 net213
*731 net214
*732 rst
*733 u0_i[0]
*734 u0_i[10]
*735 u0_i[11]
*736 u0_i[12]
*737 u0_i[13]
*738 u0_i[14]
*739 u0_i[15]
*740 u0_i[16]
*741 u0_i[17]
*742 u0_i[18]
*743 u0_i[19]
*744 u0_i[1]
*745 u0_i[20]
*746 u0_i[21]
*747 u0_i[22]
*748 u0_i[23]
*749 u0_i[24]
*750 u0_i[25]
*751 u0_i[26]
*752 u0_i[27]
*753 u0_i[28]
*754 u0_i[29]
*755 u0_i[2]
*756 u0_i[30]
*757 u0_i[31]
*758 u0_i[32]
*759 u0_i[33]
*760 u0_i[34]
*761 u0_i[35]
*762 u0_i[36]
*763 u0_i[3]
*764 u0_i[4]
*765 u0_i[5]
*766 u0_i[6]
*767 u0_i[7]
*768 u0_i[8]
*769 u0_i[9]
*770 net215
*771 net216
*772 net217
*773 net218
*774 net219
*775 net220
*776 net221
*777 net222
*778 net223
*779 net224
*780 net225
*781 net226
*782 net227
*783 net228
*784 net229
*785 net230
*786 net231
*787 net232
*788 net233
*789 net234
*790 net235
*791 net236
*792 net237
*793 net238
*794 net239
*795 net240
*796 net241
*797 net242
*798 u0_o[35]
*799 net243
*800 net244
*801 net245
*802 net246
*803 net247
*804 net248
*805 net249
*806 net250
*807 u1_i[0]
*808 u1_i[10]
*809 u1_i[11]
*810 u1_i[12]
*811 u1_i[13]
*812 u1_i[14]
*813 u1_i[15]
*814 u1_i[16]
*815 u1_i[17]
*816 u1_i[18]
*817 u1_i[19]
*818 u1_i[1]
*819 u1_i[20]
*820 u1_i[21]
*821 u1_i[22]
*822 u1_i[23]
*823 u1_i[24]
*824 u1_i[25]
*825 u1_i[26]
*826 u1_i[27]
*827 u1_i[28]
*828 u1_i[29]
*829 u1_i[2]
*830 u1_i[30]
*831 u1_i[31]
*832 u1_i[32]
*833 u1_i[33]
*834 u1_i[34]
*835 u1_i[35]
*836 u1_i[36]
*837 u1_i[3]
*838 u1_i[4]
*839 u1_i[5]
*840 u1_i[6]
*841 u1_i[7]
*842 u1_i[8]
*843 u1_i[9]
*844 net251
*845 net252
*846 net253
*847 net254
*848 net255
*849 net256
*850 net257
*851 net258
*852 net259
*853 net260
*854 net261
*855 net262
*856 net263
*857 net264
*858 net265
*859 net266
*860 net267
*861 net268
*862 net269
*863 net270
*864 net271
*865 net272
*866 net273
*867 net274
*868 net275
*869 net276
*870 net277
*871 net278
*872 u1_o[35]
*873 net279
*874 net280
*875 net281
*876 net282
*877 net283
*878 net284
*879 net285
*880 net286
*883 net1
*884 net2
*885 net3
*886 net4
*887 net5
*888 net6
*889 net7
*890 net8
*891 net9
*892 net10
*893 net11
*894 net12
*895 net13
*896 net14
*897 net15
*898 net16
*899 net17
*900 net18
*901 net19
*902 net20
*903 net21
*904 net22
*905 net23
*906 net24
*907 net25
*908 net26
*909 net27
*910 net28
*911 net29
*912 net30
*913 net31
*914 net32
*915 net33
*916 net34
*917 net35
*918 net36
*919 net37
*920 net38
*921 net39
*922 net40
*923 net41
*924 net42
*925 net43
*926 net44
*927 net45
*928 net46
*929 net47
*930 net48
*931 net49
*932 net50
*933 net51
*934 net52
*935 net53
*936 net54
*937 net55
*938 net56
*939 net57
*940 net58
*941 net59
*942 net60
*943 net61
*944 net62
*945 net63
*946 net64
*947 net65
*948 net66
*949 net67
*950 net68
*951 net69
*952 net70
*953 net71
*954 net72
*955 net73
*956 net74
*957 net75
*958 net76
*959 net77
*960 net78
*961 net79
*962 net80
*963 net81
*964 net82
*965 net83
*966 net84
*967 net85
*968 net86
*969 net87
*970 net88
*971 net89
*972 net90
*973 net91
*974 net92
*975 net93
*976 net94
*977 net95
*978 net96
*979 net97
*980 net98
*981 net99
*982 net100
*983 net101
*984 net102
*985 net103
*986 net104
*987 net105
*988 net106
*989 net107
*990 net108
*991 net109
*992 net110
*993 net111
*994 net112
*995 net113
*996 net114
*997 net115
*998 net116
*999 net117
*1000 net118
*1001 net119
*1002 net120
*1003 net121
*1004 net122
*1005 net123
*1006 net124
*1007 net125
*1008 net126
*1009 net127
*1010 net128
*1011 net129
*1012 net130
*1013 net131
*1014 net132
*1015 net133
*1016 net134
*1017 net135
*1018 net136
*1019 net137
*1020 net138
*1021 net139
*1022 net140
*1023 net141
*1024 done
*1025 l_o[0]
*1026 l_o[10]
*1027 l_o[11]
*1028 l_o[12]
*1029 l_o[13]
*1030 l_o[14]
*1031 l_o[15]
*1032 l_o[16]
*1033 l_o[17]
*1034 l_o[18]
*1035 l_o[19]
*1036 l_o[1]
*1037 l_o[20]
*1038 l_o[21]
*1039 l_o[22]
*1040 l_o[23]
*1041 l_o[24]
*1042 l_o[25]
*1043 l_o[26]
*1044 l_o[27]
*1045 l_o[28]
*1046 l_o[29]
*1047 l_o[2]
*1048 l_o[30]
*1049 l_o[31]
*1050 l_o[32]
*1051 l_o[33]
*1052 l_o[34]
*1053 l_o[36]
*1054 l_o[3]
*1055 l_o[4]
*1056 l_o[5]
*1057 l_o[6]
*1058 l_o[7]
*1059 l_o[8]
*1060 l_o[9]
*1061 r_o[0]
*1062 r_o[10]
*1063 r_o[11]
*1064 r_o[12]
*1065 r_o[13]
*1066 r_o[14]
*1067 r_o[15]
*1068 r_o[16]
*1069 r_o[17]
*1070 r_o[18]
*1071 r_o[19]
*1072 r_o[1]
*1073 r_o[20]
*1074 r_o[21]
*1075 r_o[22]
*1076 r_o[23]
*1077 r_o[24]
*1078 r_o[25]
*1079 r_o[26]
*1080 r_o[27]
*1081 r_o[28]
*1082 r_o[29]
*1083 r_o[2]
*1084 r_o[30]
*1085 r_o[31]
*1086 r_o[32]
*1087 r_o[33]
*1088 r_o[34]
*1089 r_o[36]
*1090 r_o[3]
*1091 r_o[4]
*1092 r_o[5]
*1093 r_o[6]
*1094 r_o[7]
*1095 r_o[8]
*1096 r_o[9]
*1097 u0_o[0]
*1098 u0_o[10]
*1099 u0_o[11]
*1100 u0_o[12]
*1101 u0_o[13]
*1102 u0_o[14]
*1103 u0_o[15]
*1104 u0_o[16]
*1105 u0_o[17]
*1106 u0_o[18]
*1107 u0_o[19]
*1108 u0_o[1]
*1109 u0_o[20]
*1110 u0_o[21]
*1111 u0_o[22]
*1112 u0_o[23]
*1113 u0_o[24]
*1114 u0_o[25]
*1115 u0_o[26]
*1116 u0_o[27]
*1117 u0_o[28]
*1118 u0_o[29]
*1119 u0_o[2]
*1120 u0_o[30]
*1121 u0_o[31]
*1122 u0_o[32]
*1123 u0_o[33]
*1124 u0_o[34]
*1125 u0_o[36]
*1126 u0_o[3]
*1127 u0_o[4]
*1128 u0_o[5]
*1129 u0_o[6]
*1130 u0_o[7]
*1131 u0_o[8]
*1132 u0_o[9]
*1133 u1_o[0]
*1134 u1_o[10]
*1135 u1_o[11]
*1136 u1_o[12]
*1137 u1_o[13]
*1138 u1_o[14]
*1139 u1_o[15]
*1140 u1_o[16]
*1141 u1_o[17]
*1142 u1_o[18]
*1143 u1_o[19]
*1144 u1_o[1]
*1145 u1_o[20]
*1146 u1_o[21]
*1147 u1_o[22]
*1148 u1_o[23]
*1149 u1_o[24]
*1150 u1_o[25]
*1151 u1_o[26]
*1152 u1_o[27]
*1153 u1_o[28]
*1154 u1_o[29]
*1155 u1_o[2]
*1156 u1_o[30]
*1157 u1_o[31]
*1158 u1_o[32]
*1159 u1_o[33]
*1160 u1_o[34]
*1161 u1_o[36]
*1162 u1_o[3]
*1163 u1_o[4]
*1164 u1_o[5]
*1165 u1_o[6]
*1166 u1_o[7]
*1167 u1_o[8]
*1168 u1_o[9]
*1169 net287
*1170 net288
*1171 net289
*1172 net290
*1173 clknet_4_0_0_clk
*1174 clknet_4_1_0_clk
*1175 clknet_4_2_0_clk
*1176 clknet_4_3_0_clk
*1177 clknet_4_4_0_clk
*1178 clknet_4_5_0_clk
*1179 clknet_4_6_0_clk
*1180 clknet_4_7_0_clk
*1181 clknet_4_8_0_clk
*1182 clknet_4_9_0_clk
*1183 clknet_4_10_0_clk
*1184 clknet_4_11_0_clk
*1185 clknet_4_12_0_clk
*1186 clknet_4_13_0_clk
*1187 clknet_4_14_0_clk
*1188 clknet_4_15_0_clk
*1189 _0580_
*1190 _0581_
*1191 _0582_
*1192 _0583_
*1193 _0584_
*1194 _0585_
*1195 _0586_
*1196 _0587_
*1197 _0588_
*1198 _0589_
*1199 _0590_
*1200 _0591_
*1201 _0592_
*1202 _0593_
*1203 _0594_
*1204 _0595_
*1205 _0596_
*1206 _0597_
*1207 _0598_
*1208 _0599_
*1209 _0600_
*1210 _0601_
*1211 _0602_
*1212 _0603_
*1213 _0604_
*1214 _0605_
*1215 _0606_
*1216 _0607_
*1217 _0608_
*1218 _0609_
*1219 _0610_
*1220 _0611_
*1221 _0612_
*1222 _0613_
*1223 _0614_
*1224 _0615_
*1225 _0616_
*1226 _0617_
*1227 _0618_
*1228 _0619_
*1229 _0620_
*1230 _0621_
*1231 _0622_
*1232 _0623_
*1233 _0624_
*1234 _0625_
*1235 _0626_
*1236 _0627_
*1237 _0628_
*1238 _0629_
*1239 _0630_
*1240 _0631_
*1241 _0632_
*1242 _0633_
*1243 _0634_
*1244 _0635_
*1245 _0636_
*1246 _0637_
*1247 _0638_
*1248 _0639_
*1249 _0640_
*1250 _0641_
*1251 _0642_
*1252 _0643_
*1253 _0644_
*1254 _0645_
*1255 _0646_
*1256 _0647_
*1257 _0648_
*1258 _0649_
*1259 _0650_
*1260 _0651_
*1261 _0652_
*1262 _0653_
*1263 _0654_
*1264 _0655_
*1265 _0656_
*1266 _0657_
*1267 _0658_
*1268 _0659_
*1269 _0660_
*1270 _0661_
*1271 _0662_
*1272 _0663_
*1273 _0664_
*1274 _0665_
*1275 _0666_
*1276 _0667_
*1277 _0668_
*1278 _0669_
*1279 _0670_
*1280 _0671_
*1281 _0672_
*1282 _0673_
*1283 _0674_
*1284 _0675_
*1285 _0676_
*1286 _0677_
*1287 _0678_
*1288 _0679_
*1289 _0680_
*1290 _0681_
*1291 _0682_
*1292 _0683_
*1293 _0684_
*1294 _0685_
*1295 _0686_
*1296 _0687_
*1297 _0688_
*1298 _0689_
*1299 _0690_
*1300 _0691_
*1301 _0692_
*1302 _0693_
*1303 _0694_
*1304 _0695_
*1305 _0696_
*1306 _0697_
*1307 _0698_
*1308 _0699_
*1309 _0700_
*1310 _0701_
*1311 _0702_
*1312 _0703_
*1313 _0704_
*1314 _0705_
*1315 _0706_
*1316 _0707_
*1317 _0708_
*1318 _0709_
*1319 _0710_
*1320 _0711_
*1321 _0712_
*1322 _0713_
*1323 _0714_
*1324 _0715_
*1325 _0716_
*1326 _0717_
*1327 _0718_
*1328 _0719_
*1329 _0720_
*1330 _0721_
*1331 _0722_
*1332 _0723_
*1333 _0724_
*1334 _0725_
*1335 _0726_
*1336 _0727_
*1337 _0728_
*1338 _0729_
*1339 _0730_
*1340 _0731_
*1341 _0732_
*1342 _0733_
*1343 _0734_
*1344 _0735_
*1345 _0736_
*1346 _0737_
*1347 _0738_
*1348 _0739_
*1349 _0740_
*1350 _0741_
*1351 _0742_
*1352 _0743_
*1353 _0744_
*1354 _0745_
*1355 _0746_
*1356 _0747_
*1357 _0748_
*1358 _0749_
*1359 _0750_
*1360 _0751_
*1361 _0752_
*1362 _0753_
*1363 _0754_
*1364 _0755_
*1365 _0756_
*1366 _0757_
*1367 _0758_
*1368 _0759_
*1369 _0760_
*1370 _0761_
*1371 _0762_
*1372 _0763_
*1373 _0764_
*1374 _0765_
*1375 _0766_
*1376 _0767_
*1377 _0768_
*1378 _0769_
*1379 _0770_
*1380 _0771_
*1381 _0772_
*1382 _0773_
*1383 _0774_
*1384 _0775_
*1385 _0776_
*1386 _0777_
*1387 _0778_
*1388 _0779_
*1389 _0780_
*1390 _0781_
*1391 _0782_
*1392 _0783_
*1393 _0784_
*1394 _0785_
*1395 _0786_
*1396 _0787_
*1397 _0788_
*1398 _0789_
*1399 _0790_
*1400 _0791_
*1401 _0792_
*1402 _0793_
*1403 _0794_
*1404 _0795_
*1405 _0796_
*1406 _0797_
*1407 _0798_
*1408 _0799_
*1409 _0800_
*1410 _0801_
*1411 _0802_
*1412 _0803_
*1413 _0804_
*1414 _0805_
*1415 _0806_
*1416 _0807_
*1417 _0808_
*1418 _0809_
*1419 _0810_
*1420 _0811_
*1421 _0812_
*1422 _0813_
*1423 _0814_
*1424 _0815_
*1425 _0816_
*1426 _0817_
*1427 _0818_
*1428 _0819_
*1429 _0820_
*1430 _0821_
*1431 _0822_
*1432 _0823_
*1433 _0824_
*1434 _0825_
*1435 _0826_
*1436 _0827_
*1437 _0828_
*1438 _0829_
*1439 _0830_
*1440 _0831_
*1441 _0832_
*1442 _0833_
*1443 _0834_
*1444 _0835_
*1445 _0836_
*1446 _0837_
*1447 _0838_
*1448 _0839_
*1449 _0840_
*1450 _0841_
*1451 _0842_
*1452 _0843_
*1453 _0844_
*1454 _0845_
*1455 _0846_
*1456 _0847_
*1457 _0848_
*1458 _0849_
*1459 _0850_
*1460 _0851_
*1461 _0852_
*1462 _0853_
*1463 _0854_
*1464 _0855_
*1465 _0856_
*1466 _0857_
*1467 _0858_
*1468 _0859_
*1469 _0860_
*1470 _0861_
*1471 _0862_
*1472 _0863_
*1473 _0864_
*1474 _0865_
*1475 _0866_
*1476 _0867_
*1477 _0868_
*1478 _0869_
*1479 _0870_
*1480 _0871_
*1481 _0872_
*1482 _0873_
*1483 _0874_
*1484 _0875_
*1485 _0876_
*1486 _0877_
*1487 _0878_
*1488 _0879_
*1489 _0880_
*1490 _0881_
*1491 _0882_
*1492 _0883_
*1493 _0884_
*1494 _0885_
*1495 _0886_
*1496 _0887_
*1497 _0888_
*1498 _0889_
*1499 _0890_
*1500 _0891_
*1501 _0892_
*1502 _0893_
*1503 _0894_
*1504 _0895_
*1505 _0896_
*1506 _0897_
*1507 _0898_
*1508 _0899_
*1509 _0900_
*1510 _0901_
*1511 _0902_
*1512 _0903_
*1513 _0904_
*1514 _0905_
*1515 _0906_
*1516 _0907_
*1517 _0908_
*1518 _0909_
*1519 _0910_
*1520 _0911_
*1521 _0912_
*1522 _0913_
*1523 _0914_
*1524 _0915_
*1525 _0916_
*1526 _0917_
*1527 _0918_
*1528 _0919_
*1529 _0920_
*1530 _0921_
*1531 _0922_
*1532 _0923_
*1533 _0924_
*1534 _0925_
*1535 _0926_
*1536 _0927_
*1537 _0928_
*1538 _0929_
*1539 _0930_
*1540 _0931_
*1541 _0932_
*1542 _0933_
*1543 _0934_
*1544 _0935_
*1545 _0936_
*1546 _0937_
*1547 _0938_
*1548 _0939_
*1549 _0940_
*1550 _0941_
*1551 _0942_
*1552 _0943_
*1553 _0944_
*1554 _0945_
*1555 _0946_
*1556 _0947_
*1557 _0948_
*1558 _0949_
*1559 _0950_
*1560 _0951_
*1561 _0952_
*1562 _0953_
*1563 _0954_
*1564 _0955_
*1565 _0956_
*1566 _0957_
*1567 _0958_
*1568 _0959_
*1569 _0960_
*1570 _0961_
*1571 _0962_
*1572 _0963_
*1573 _0964_
*1574 _0965_
*1575 _0966_
*1576 _0967_
*1577 _0968_
*1578 _0969_
*1579 _0970_
*1580 _0971_
*1581 _0972_
*1582 _0973_
*1583 _0974_
*1584 _0975_
*1585 _0976_
*1586 _0977_
*1587 _0978_
*1588 _0979_
*1589 _0980_
*1590 _0981_
*1591 _0982_
*1592 _0983_
*1593 _0984_
*1594 _0985_
*1595 _0986_
*1596 _0987_
*1597 _0988_
*1598 _0989_
*1599 _0990_
*1600 _0991_
*1601 _0992_
*1602 _0993_
*1603 _0994_
*1604 _0995_
*1605 _0996_
*1606 _0997_
*1607 _0998_
*1608 _0999_
*1609 _1000_
*1610 _1001_
*1611 _1002_
*1612 _1003_
*1613 _1004_
*1614 _1005_
*1615 _1006_
*1616 _1007_
*1617 _1008_
*1618 _1009_
*1619 _1010_
*1620 _1011_
*1621 _1012_
*1622 _1013_
*1623 _1014_
*1624 _1015_
*1625 _1016_
*1626 _1017_
*1627 _1018_
*1628 _1019_
*1629 _1020_
*1630 _1021_
*1631 _1022_
*1632 _1023_
*1633 _1024_
*1634 _1025_
*1635 _1026_
*1636 _1027_
*1637 _1028_
*1638 _1029_
*1639 _1030_
*1640 _1031_
*1641 _1032_
*1642 _1033_
*1643 _1034_
*1644 _1035_
*1645 _1036_
*1646 _1037_
*1647 _1038_
*1648 _1039_
*1649 _1040_
*1650 _1041_
*1651 _1042_
*1652 _1043_
*1653 _1044_
*1654 _1045_
*1655 _1046_
*1656 _1047_
*1657 _1048_
*1658 _1049_
*1659 _1050_
*1660 _1051_
*1661 _1052_
*1662 _1053_
*1663 _1054_
*1664 _1055_
*1665 _1056_
*1666 _1057_
*1667 _1058_
*1668 _1059_
*1669 _1060_
*1670 _1061_
*1671 _1062_
*1672 _1063_
*1673 _1064_
*1674 _1065_
*1675 _1066_
*1676 _1067_
*1677 _1068_
*1678 _1069_
*1679 _1070_
*1680 _1071_
*1681 _1072_
*1682 _1073_
*1683 _1074_
*1684 _1075_
*1685 _1076_
*1686 _1077_
*1687 _1078_
*1688 _1079_
*1689 _1080_
*1690 _1081_
*1691 _1082_
*1692 _1083_
*1693 _1084_
*1694 _1085_
*1695 _1086_
*1696 _1087_
*1697 _1088_
*1698 _1089_
*1699 _1090_
*1700 _1091_
*1701 _1092_
*1702 _1093_
*1703 _1094_
*1704 _1095_
*1705 _1096_
*1706 _1097_
*1707 _1098_
*1708 _1099_
*1709 _1100_
*1710 _1101_
*1711 _1102_
*1712 _1103_
*1713 _1104_
*1714 _1105_
*1715 _1106_
*1716 _1107_
*1717 _1108_
*1718 _1109_
*1719 _1110_
*1720 _1111_
*1721 _1112_
*1722 _1113_
*1723 _1114_
*1724 _1115_
*1725 _1116_
*1726 _1117_
*1727 _1118_
*1728 _1119_
*1729 _1120_
*1730 _1121_
*1731 _1122_
*1732 _1123_
*1733 _1124_
*1734 _1125_
*1735 _1126_
*1736 _1127_
*1737 _1128_
*1738 _1129_
*1739 _1130_
*1740 _1131_
*1741 _1132_
*1742 _1133_
*1743 _1134_
*1744 _1135_
*1745 _1136_
*1746 _1137_
*1747 _1138_
*1748 _1139_
*1749 _1140_
*1750 _1141_
*1751 _1142_
*1752 _1143_
*1753 _1144_
*1754 _1145_
*1755 _1146_
*1756 _1147_
*1757 _1148_
*1758 _1149_
*1759 _1150_
*1760 _1151_
*1761 _1152_
*1762 _1153_
*1763 _1154_
*1764 _1155_
*1765 _1156_
*1766 _1157_
*1767 _1158_
*1768 clkbuf_0_clk
*1769 _1160_
*1770 _1161_
*1771 _1162_
*1772 _1163_
*1773 done_sig\$_DFF_P_
*1774 l_o_r\[0\]\$_SDFF_PP0_
*1775 l_o_r\[10\]\$_SDFF_PP0_
*1776 l_o_r\[11\]\$_SDFF_PP0_
*1777 l_o_r\[12\]\$_SDFF_PP0_
*1778 l_o_r\[13\]\$_SDFF_PP0_
*1779 l_o_r\[14\]\$_SDFF_PP0_
*1780 l_o_r\[15\]\$_SDFF_PP0_
*1781 l_o_r\[16\]\$_SDFF_PP0_
*1782 l_o_r\[17\]\$_SDFF_PP0_
*1783 l_o_r\[18\]\$_SDFF_PP0_
*1784 l_o_r\[19\]\$_SDFF_PP0_
*1785 l_o_r\[1\]\$_SDFF_PP0_
*1786 l_o_r\[20\]\$_SDFF_PP0_
*1787 l_o_r\[21\]\$_SDFF_PP0_
*1788 l_o_r\[22\]\$_SDFF_PP0_
*1789 l_o_r\[23\]\$_SDFF_PP0_
*1790 l_o_r\[24\]\$_SDFF_PP0_
*1791 l_o_r\[25\]\$_SDFF_PP0_
*1792 l_o_r\[26\]\$_SDFF_PP0_
*1793 l_o_r\[27\]\$_SDFF_PP0_
*1794 l_o_r\[28\]\$_SDFF_PP0_
*1795 l_o_r\[29\]\$_SDFF_PP0_
*1796 l_o_r\[2\]\$_SDFF_PP0_
*1797 l_o_r\[30\]\$_SDFF_PP0_
*1798 l_o_r\[31\]\$_SDFF_PP0_
*1799 l_o_r\[32\]\$_SDFF_PP0_
*1800 l_o_r\[33\]\$_SDFF_PP0_
*1801 l_o_r\[34\]\$_SDFF_PP0_
*1802 l_o_r\[36\]\$_SDFF_PP0_
*1803 l_o_r\[3\]\$_SDFF_PP0_
*1804 l_o_r\[4\]\$_SDFF_PP0_
*1805 l_o_r\[5\]\$_SDFF_PP0_
*1806 l_o_r\[6\]\$_SDFF_PP0_
*1807 l_o_r\[7\]\$_SDFF_PP0_
*1808 l_o_r\[8\]\$_SDFF_PP0_
*1809 l_o_r\[9\]\$_SDFF_PP0_
*1810 r_o_r\[0\]\$_SDFF_PP0_
*1811 r_o_r\[10\]\$_SDFF_PP0_
*1812 r_o_r\[11\]\$_SDFF_PP0_
*1813 r_o_r\[12\]\$_SDFF_PP0_
*1814 r_o_r\[13\]\$_SDFF_PP0_
*1815 r_o_r\[14\]\$_SDFF_PP0_
*1816 r_o_r\[15\]\$_SDFF_PP0_
*1817 r_o_r\[16\]\$_SDFF_PP0_
*1818 r_o_r\[17\]\$_SDFF_PP0_
*1819 r_o_r\[18\]\$_SDFF_PP0_
*1820 r_o_r\[19\]\$_SDFF_PP0_
*1821 r_o_r\[1\]\$_SDFF_PP0_
*1822 r_o_r\[20\]\$_SDFF_PP0_
*1823 r_o_r\[21\]\$_SDFF_PP0_
*1824 r_o_r\[22\]\$_SDFF_PP0_
*1825 r_o_r\[23\]\$_SDFF_PP0_
*1826 r_o_r\[24\]\$_SDFF_PP0_
*1827 r_o_r\[25\]\$_SDFF_PP0_
*1828 r_o_r\[26\]\$_SDFF_PP0_
*1829 r_o_r\[27\]\$_SDFF_PP0_
*1830 r_o_r\[28\]\$_SDFF_PP0_
*1831 r_o_r\[29\]\$_SDFF_PP0_
*1832 r_o_r\[2\]\$_SDFF_PP0_
*1833 r_o_r\[30\]\$_SDFF_PP0_
*1834 r_o_r\[31\]\$_SDFF_PP0_
*1835 r_o_r\[32\]\$_SDFF_PP0_
*1836 r_o_r\[33\]\$_SDFF_PP0_
*1837 r_o_r\[34\]\$_SDFF_PP0_
*1838 r_o_r\[36\]\$_SDFF_PP0_
*1839 r_o_r\[3\]\$_SDFF_PP0_
*1840 r_o_r\[4\]\$_SDFF_PP0_
*1841 r_o_r\[5\]\$_SDFF_PP0_
*1842 r_o_r\[6\]\$_SDFF_PP0_
*1843 r_o_r\[7\]\$_SDFF_PP0_
*1844 r_o_r\[8\]\$_SDFF_PP0_
*1845 r_o_r\[9\]\$_SDFF_PP0_
*1846 u0_o_r\[0\]\$_SDFF_PP0_
*1847 u0_o_r\[10\]\$_SDFF_PP0_
*1848 u0_o_r\[11\]\$_SDFF_PP0_
*1849 u0_o_r\[12\]\$_SDFF_PP0_
*1850 u0_o_r\[13\]\$_SDFF_PP0_
*1851 u0_o_r\[14\]\$_SDFF_PP0_
*1852 u0_o_r\[15\]\$_SDFF_PP0_
*1853 u0_o_r\[16\]\$_SDFF_PP0_
*1854 u0_o_r\[17\]\$_SDFF_PP0_
*1855 u0_o_r\[18\]\$_SDFF_PP0_
*1856 u0_o_r\[19\]\$_SDFF_PP0_
*1857 u0_o_r\[1\]\$_SDFF_PP0_
*1858 u0_o_r\[20\]\$_SDFF_PP0_
*1859 u0_o_r\[21\]\$_SDFF_PP0_
*1860 u0_o_r\[22\]\$_SDFF_PP0_
*1861 u0_o_r\[23\]\$_SDFF_PP0_
*1862 u0_o_r\[24\]\$_SDFF_PP0_
*1863 u0_o_r\[25\]\$_SDFF_PP0_
*1864 u0_o_r\[26\]\$_SDFF_PP0_
*1865 u0_o_r\[27\]\$_SDFF_PP0_
*1866 u0_o_r\[28\]\$_SDFF_PP0_
*1867 u0_o_r\[29\]\$_SDFF_PP0_
*1868 u0_o_r\[2\]\$_SDFF_PP0_
*1869 u0_o_r\[30\]\$_SDFF_PP0_
*1870 u0_o_r\[31\]\$_SDFF_PP0_
*1871 u0_o_r\[32\]\$_SDFF_PP0_
*1872 u0_o_r\[33\]\$_SDFF_PP0_
*1873 u0_o_r\[34\]\$_SDFF_PP0_
*1874 u0_o_r\[36\]\$_SDFF_PP0_
*1875 u0_o_r\[3\]\$_SDFF_PP0_
*1876 u0_o_r\[4\]\$_SDFF_PP0_
*1877 u0_o_r\[5\]\$_SDFF_PP0_
*1878 u0_o_r\[6\]\$_SDFF_PP0_
*1879 u0_o_r\[7\]\$_SDFF_PP0_
*1880 u0_o_r\[8\]\$_SDFF_PP0_
*1881 u0_o_r\[9\]\$_SDFF_PP0_
*1882 u1_o_r\[0\]\$_SDFF_PP0_
*1883 u1_o_r\[10\]\$_SDFF_PP0_
*1884 u1_o_r\[11\]\$_SDFF_PP0_
*1885 u1_o_r\[12\]\$_SDFF_PP0_
*1886 u1_o_r\[13\]\$_SDFF_PP0_
*1887 u1_o_r\[14\]\$_SDFF_PP0_
*1888 u1_o_r\[15\]\$_SDFF_PP0_
*1889 u1_o_r\[16\]\$_SDFF_PP0_
*1890 u1_o_r\[17\]\$_SDFF_PP0_
*1891 u1_o_r\[18\]\$_SDFF_PP0_
*1892 u1_o_r\[19\]\$_SDFF_PP0_
*1893 u1_o_r\[1\]\$_SDFF_PP0_
*1894 u1_o_r\[20\]\$_SDFF_PP0_
*1895 u1_o_r\[21\]\$_SDFF_PP0_
*1896 u1_o_r\[22\]\$_SDFF_PP0_
*1897 u1_o_r\[23\]\$_SDFF_PP0_
*1898 u1_o_r\[24\]\$_SDFF_PP0_
*1899 u1_o_r\[25\]\$_SDFF_PP0_
*1900 u1_o_r\[26\]\$_SDFF_PP0_
*1901 u1_o_r\[27\]\$_SDFF_PP0_
*1902 u1_o_r\[28\]\$_SDFF_PP0_
*1903 u1_o_r\[29\]\$_SDFF_PP0_
*1904 u1_o_r\[2\]\$_SDFF_PP0_
*1905 u1_o_r\[30\]\$_SDFF_PP0_
*1906 u1_o_r\[31\]\$_SDFF_PP0_
*1907 u1_o_r\[32\]\$_SDFF_PP0_
*1908 u1_o_r\[33\]\$_SDFF_PP0_
*1909 u1_o_r\[34\]\$_SDFF_PP0_
*1910 u1_o_r\[36\]\$_SDFF_PP0_
*1911 u1_o_r\[3\]\$_SDFF_PP0_
*1912 u1_o_r\[4\]\$_SDFF_PP0_
*1913 u1_o_r\[5\]\$_SDFF_PP0_
*1914 u1_o_r\[6\]\$_SDFF_PP0_
*1915 u1_o_r\[7\]\$_SDFF_PP0_
*1916 u1_o_r\[8\]\$_SDFF_PP0_
*1917 u1_o_r\[9\]\$_SDFF_PP0_
*1918 PHY_EDGE_ROW_0_Right_0
*1919 PHY_EDGE_ROW_1_Right_1
*1920 PHY_EDGE_ROW_2_Right_2
*1921 PHY_EDGE_ROW_3_Right_3
*1922 PHY_EDGE_ROW_4_Right_4
*1923 PHY_EDGE_ROW_5_Right_5
*1924 PHY_EDGE_ROW_6_Right_6
*1925 PHY_EDGE_ROW_7_Right_7
*1926 PHY_EDGE_ROW_8_Right_8
*1927 PHY_EDGE_ROW_9_Right_9
*1928 PHY_EDGE_ROW_10_Right_10
*1929 PHY_EDGE_ROW_11_Right_11
*1930 PHY_EDGE_ROW_12_Right_12
*1931 PHY_EDGE_ROW_13_Right_13
*1932 PHY_EDGE_ROW_14_Right_14
*1933 PHY_EDGE_ROW_15_Right_15
*1934 PHY_EDGE_ROW_16_Right_16
*1935 PHY_EDGE_ROW_17_Right_17
*1936 PHY_EDGE_ROW_18_Right_18
*1937 PHY_EDGE_ROW_19_Right_19
*1938 PHY_EDGE_ROW_20_Right_20
*1939 PHY_EDGE_ROW_21_Right_21
*1940 PHY_EDGE_ROW_22_Right_22
*1941 PHY_EDGE_ROW_23_Right_23
*1942 PHY_EDGE_ROW_24_Right_24
*1943 PHY_EDGE_ROW_25_Right_25
*1944 PHY_EDGE_ROW_26_Right_26
*1945 PHY_EDGE_ROW_27_Right_27
*1946 PHY_EDGE_ROW_28_Right_28
*1947 PHY_EDGE_ROW_29_Right_29
*1948 PHY_EDGE_ROW_30_Right_30
*1949 PHY_EDGE_ROW_31_Right_31
*1950 PHY_EDGE_ROW_32_Right_32
*1951 PHY_EDGE_ROW_33_Right_33
*1952 PHY_EDGE_ROW_34_Right_34
*1953 PHY_EDGE_ROW_35_Right_35
*1954 PHY_EDGE_ROW_36_Right_36
*1955 PHY_EDGE_ROW_37_Right_37
*1956 PHY_EDGE_ROW_38_Right_38
*1957 PHY_EDGE_ROW_39_Right_39
*1958 PHY_EDGE_ROW_40_Right_40
*1959 PHY_EDGE_ROW_41_Right_41
*1960 PHY_EDGE_ROW_42_Right_42
*1961 PHY_EDGE_ROW_43_Right_43
*1962 PHY_EDGE_ROW_44_Right_44
*1963 PHY_EDGE_ROW_45_Right_45
*1964 PHY_EDGE_ROW_46_Right_46
*1965 PHY_EDGE_ROW_47_Right_47
*1966 PHY_EDGE_ROW_48_Right_48
*1967 PHY_EDGE_ROW_49_Right_49
*1968 PHY_EDGE_ROW_50_Right_50
*1969 PHY_EDGE_ROW_51_Right_51
*1970 PHY_EDGE_ROW_52_Right_52
*1971 PHY_EDGE_ROW_53_Right_53
*1972 PHY_EDGE_ROW_54_Right_54
*1973 PHY_EDGE_ROW_0_Left_55
*1974 PHY_EDGE_ROW_1_Left_56
*1975 PHY_EDGE_ROW_2_Left_57
*1976 PHY_EDGE_ROW_3_Left_58
*1977 PHY_EDGE_ROW_4_Left_59
*1978 PHY_EDGE_ROW_5_Left_60
*1979 PHY_EDGE_ROW_6_Left_61
*1980 PHY_EDGE_ROW_7_Left_62
*1981 PHY_EDGE_ROW_8_Left_63
*1982 PHY_EDGE_ROW_9_Left_64
*1983 PHY_EDGE_ROW_10_Left_65
*1984 PHY_EDGE_ROW_11_Left_66
*1985 PHY_EDGE_ROW_12_Left_67
*1986 PHY_EDGE_ROW_13_Left_68
*1987 PHY_EDGE_ROW_14_Left_69
*1988 PHY_EDGE_ROW_15_Left_70
*1989 PHY_EDGE_ROW_16_Left_71
*1990 PHY_EDGE_ROW_17_Left_72
*1991 PHY_EDGE_ROW_18_Left_73
*1992 PHY_EDGE_ROW_19_Left_74
*1993 PHY_EDGE_ROW_20_Left_75
*1994 PHY_EDGE_ROW_21_Left_76
*1995 PHY_EDGE_ROW_22_Left_77
*1996 PHY_EDGE_ROW_23_Left_78
*1997 PHY_EDGE_ROW_24_Left_79
*1998 PHY_EDGE_ROW_25_Left_80
*1999 PHY_EDGE_ROW_26_Left_81
*2000 PHY_EDGE_ROW_27_Left_82
*2001 PHY_EDGE_ROW_28_Left_83
*2002 PHY_EDGE_ROW_29_Left_84
*2003 PHY_EDGE_ROW_30_Left_85
*2004 PHY_EDGE_ROW_31_Left_86
*2005 PHY_EDGE_ROW_32_Left_87
*2006 PHY_EDGE_ROW_33_Left_88
*2007 PHY_EDGE_ROW_34_Left_89
*2008 PHY_EDGE_ROW_35_Left_90
*2009 PHY_EDGE_ROW_36_Left_91
*2010 PHY_EDGE_ROW_37_Left_92
*2011 PHY_EDGE_ROW_38_Left_93
*2012 PHY_EDGE_ROW_39_Left_94
*2013 PHY_EDGE_ROW_40_Left_95
*2014 PHY_EDGE_ROW_41_Left_96
*2015 PHY_EDGE_ROW_42_Left_97